<?xml version="1.0" encoding="UTF-8"?>

<!-- generated on 2024-02-22 01:02:32 by Eclipse SUMO polyconvert Version 1.18.0
<configuration xmlns:xsi="http://www.w3.org/2001/XMLSchema-instance" xsi:noNamespaceSchemaLocation="http://sumo.dlr.de/xsd/polyconvertConfiguration.xsd">

    <input>
        <net-file value="osm.net.xml.gz"/>
        <osm-files value="osm_bbox.osm.xml.gz"/>
        <osm.keep-full-type value="true"/>
        <type-file value="${SUMO_HOME}/data/typemap/osmPolyconvert.typ.xml"/>
    </input>

    <output>
        <output-file value="osm.poly.xml.gz"/>
    </output>

    <report>
        <verbose value="true"/>
    </report>

</configuration>
-->

<additional xmlns:xsi="http://www.w3.org/2001/XMLSchema-instance" xsi:noNamespaceSchemaLocation="http://sumo.dlr.de/xsd/additional_file.xsd">
    <location netOffset="-399694.65,-6190280.98" convBoundary="-251.03,-1416.97,3952.00,1196.79" origBoundary="37.393752,55.835607,37.460847,55.858484" projParameter="+proj=utm +zone=37 +ellps=WGS84 +datum=WGS84 +units=m +no_defs"/>

    <poly id="1001148930" type="amenity.parking" color="184,184,179" fill="1" layer="-1.00" shape="268.515766,354.276731 269.633301,359.005060 292.358961,349.083559 287.955775,344.464463 268.515766,354.276731"/>
    <poly id="1060533852" type="amenity.parking" color="184,184,179" fill="1" layer="-1.00" shape="453.163507,252.441465 449.497990,245.311245 445.226778,247.502821 448.892300,254.633037 453.163507,252.441465"/>
    <poly id="106650580" type="landuse.grass" color="194,194,130" fill="1" layer="-3.00" shape="441.927849,232.091765 447.110641,242.549414 441.606245,245.314966 447.137020,255.653257 451.930511,263.080362 461.849839,274.419790 474.753605,287.527555 484.758784,295.257712 478.399367,296.250378 456.399819,296.668174 451.177942,296.198411 448.890809,295.338146 444.858392,288.049380 444.431987,283.950843 445.366846,277.226768 447.215911,276.471595 428.165745,238.821992 441.927849,232.091765"/>
    <poly id="106650586" type="landuse.grass" color="194,194,130" fill="1" layer="-3.00" shape="426.748429,236.026681 418.240648,219.087903 411.774995,211.944322 409.656833,211.080181 408.202342,209.933530 406.786903,206.948907 406.243828,201.594947 407.256486,197.975392 410.369513,194.719369 414.010647,192.364145 416.520134,191.727342 418.203487,191.933483 421.945173,193.940387 425.319751,198.227045 440.541328,229.273472 426.748429,236.026681"/>
    <poly id="107022949" type="landuse.grass" color="194,194,130" fill="1" layer="-3.00" shape="325.931623,213.701360 327.750102,208.905280 330.220485,206.031439 325.193239,229.205489 322.904564,228.824076 325.931623,213.701360"/>
    <poly id="107022951" type="landuse.grass" color="194,194,130" fill="1" layer="-3.00" shape="495.054405,328.922886 494.612302,317.342814 500.843347,317.032288 506.588757,317.935403 510.960349,319.560457 514.205157,325.019213 514.667041,329.573422 495.054405,328.922886"/>
    <poly id="107022953" type="landuse.grass" color="194,194,130" fill="1" layer="-3.00" shape="277.120680,289.669115 289.074477,237.442944 294.843929,237.209582 299.490006,239.050769 303.909782,242.756526 304.680402,246.023209 294.128610,293.329241 289.195596,293.164752 282.398233,292.820627 278.085915,292.140803 277.120680,289.669115"/>
    <poly id="107022960" type="landuse.grass" color="194,194,130" fill="1" layer="-3.00" shape="437.653127,329.521736 437.911413,324.694858 434.541525,324.683455 434.574023,322.288944 418.052243,322.046272 410.493065,329.134604 437.653127,329.521736"/>
    <poly id="107022967" type="landuse.grass" color="194,194,130" fill="1" layer="-3.00" shape="327.971263,228.807381 332.572364,208.337541 334.326752,202.663374 338.022285,200.496103 344.664037,199.518990 354.072499,198.466938 366.091218,196.530807 370.187209,193.530429 372.589706,183.365554 376.309171,164.307824 374.285638,160.758277 347.723727,139.916089 346.032849,138.841714 346.253981,136.209041 347.755957,135.339362 362.441217,146.357108 364.051055,145.818961 363.667635,144.402680 369.003160,144.903124 370.901163,142.465591 372.295793,141.286651 378.579598,110.657467 373.468746,99.530206 380.904841,100.126967 412.209048,172.899301 390.424138,188.086984 374.617596,198.783607 361.283543,207.508255 354.063958,212.217353 346.587658,219.916239 342.484497,224.776148 338.206812,231.844576 335.431040,231.797273 329.187948,230.505047 327.971263,228.807381"/>
    <poly id="107022971" type="landuse.grass" color="194,194,130" fill="1" layer="-3.00" shape="479.802846,329.441220 479.887762,323.883511 490.363575,324.043007 490.278646,329.600714 479.802846,329.441220"/>
    <poly id="107022975" type="landuse.grass" color="194,194,130" fill="1" layer="-3.00" shape="356.349858,296.658893 355.323267,295.869806 355.196828,290.116557 356.318276,289.044115 370.420040,288.362593 381.337331,288.378042 384.149138,288.903294 385.962583,289.863518 387.097438,291.273607 387.765617,292.816929 387.856189,295.386744 386.916686,296.744461 376.482561,296.495181 368.587724,296.632715 362.090142,296.793705 356.349858,296.658893"/>
    <poly id="107022978" type="landuse.grass" color="194,194,130" fill="1" layer="-3.00" shape="420.168774,319.581454 416.878208,319.479165 407.158173,329.011078 368.090459,328.843078 350.492542,327.834984 332.494667,324.965713 333.448781,324.242273 357.299239,319.082699 375.488538,318.574123 397.314858,317.981766 420.307372,317.986129 420.168774,319.581454"/>
    <poly id="107022980" type="landuse.grass" color="194,194,130" fill="1" layer="-3.00" shape="588.159897,454.773067 558.200261,374.631493 556.209355,367.863458 558.089297,358.111539 562.546990,349.602935 569.138462,346.177889 576.109015,345.616639 593.914264,346.932619 603.442765,356.010059 605.653302,367.426972 599.215867,398.504685 589.785717,446.496666 588.159897,454.773067"/>
    <poly id="107022983" type="landuse.grass" color="194,194,130" fill="1" layer="-3.00" shape="344.846025,189.216045 350.598089,162.429095 347.263323,157.429011 340.910278,152.732364 338.409233,152.378108 337.102392,156.004467 333.729194,175.132183 332.230056,186.712500 333.957946,189.934836 336.824466,190.113650 341.297368,189.876861 344.846025,189.216045"/>
    <poly id="107022987" type="landuse.grass" color="194,194,130" fill="1" layer="-3.00" shape="522.659578,354.896830 515.607425,336.955722 513.050486,331.993276 497.855089,331.686354 480.625003,331.960779 473.100589,345.182908 472.752213,350.178864 509.168949,375.849517 512.016333,374.659429 522.659578,354.896830"/>
    <poly id="107023002" type="landuse.grass" color="194,194,130" fill="1" layer="-3.00" shape="336.619620,234.720306 330.419889,279.287130 330.987024,281.879351 336.142090,286.781757 337.104922,288.607752 337.370467,292.787929 336.314093,294.237424 325.991057,294.731666 321.010412,293.588467 318.286115,291.970126 316.711375,289.412290 318.600312,276.542584 327.423010,233.006333 336.619620,234.720306"/>
    <poly id="107023009" type="landuse.grass" color="194,194,130" fill="1" layer="-3.00" shape="294.696999,212.117420 296.221697,214.676404 305.787829,217.472896 308.419912,200.978692 309.392193,199.141449 310.612399,199.091024 311.597793,201.350712 312.513565,201.407517 313.304366,200.120018 321.806478,154.898827 330.575729,113.646258 332.149828,99.069227 328.063884,95.177596 326.065639,106.301809 325.542507,113.762377 320.827235,127.387577 315.973332,137.174828 304.717834,173.819752 294.696999,212.117420"/>
    <poly id="107023010" type="landuse.grass" color="194,194,130" fill="1" layer="-3.00" shape="57.924616,421.025310 56.101019,414.754629 212.180970,369.583968 214.010871,375.865694 57.924616,421.025310"/>
    <poly id="107023014" type="landuse.grass" color="194,194,130" fill="1" layer="-3.00" shape="327.256128,347.933103 324.329861,326.701689 312.658217,330.634021 304.752233,334.357010 292.819996,341.379470 301.244179,345.727629 313.505489,351.880002 327.256128,347.933103"/>
    <poly id="107023018" type="landuse.grass" color="194,194,130" fill="1" layer="-3.00" shape="441.215378,329.183561 441.285825,323.815458 464.516839,324.115170 464.440360,329.494544 441.215378,329.183561"/>
    <poly id="107023019" type="landuse.grass" color="194,194,130" fill="1" layer="-3.00" shape="310.367297,352.408904 289.929082,342.581841 287.955775,344.464463 292.358961,349.083559 269.633301,359.005060 268.515766,354.276731 264.707071,355.333301 266.047816,360.234616 232.169889,369.445164 230.829107,364.543858 225.985644,366.626402 226.667329,372.277759 228.614015,374.125544 230.587061,374.402856 280.449857,360.904184 310.367297,352.408904"/>
    <poly id="107023022" type="landuse.grass" color="194,194,130" fill="1" layer="-3.00" shape="369.611715,334.786834 337.103719,345.568218 333.804855,345.377114 331.242679,343.454413 329.417387,339.265688 329.030623,334.175338 329.647484,331.321991 332.200479,329.860232 347.280329,331.672300 368.556403,334.109744 369.611715,334.786834"/>
    <poly id="107023025" type="landuse.grass" color="194,194,130" fill="1" layer="-3.00" shape="278.083881,323.527000 275.688196,324.205794 274.019907,323.565145 272.942294,322.465509 272.370126,320.741846 272.508858,318.612089 273.700477,315.968141 277.272728,311.721641 284.297012,308.330701 291.207826,305.721756 289.084429,310.057274 285.865709,314.696420 280.463251,321.056044 278.083881,323.527000"/>
    <poly id="108140816" type="landuse.grass" color="194,194,130" fill="1" layer="-3.00" shape="250.477322,331.746463 246.591951,332.738015 243.212834,331.513391 238.848618,322.618066 238.588047,311.334418 238.494852,297.263457 229.209984,285.486785 216.456270,281.350097 209.371256,276.960028 204.258231,271.444438 200.996809,264.472088 187.349974,253.943049 172.022561,250.378106 166.068734,252.931723 160.621996,253.035327 156.419016,255.192214 152.292709,256.601369 148.543571,254.004776 147.206881,246.576026 150.171724,234.750208 148.390495,225.160642 147.077732,216.328480 143.721076,209.848257 143.174858,201.933617 145.627210,198.013507 150.455301,197.155952 153.024680,198.299019 157.440065,203.975415 161.980348,204.215636 165.352676,201.888677 171.611596,192.747939 176.831948,191.246723 181.755819,191.823250 184.500339,196.480568 185.053716,202.268489 185.455319,207.180348 188.124871,212.117745 191.230169,215.040993 202.865180,219.003047 210.608927,217.198638 217.874012,214.737270 234.341207,207.442878 248.067091,201.592436 260.910026,197.376822 269.187874,196.729236 275.932291,197.486518 277.956911,198.909444 279.100916,202.612855 280.118087,208.690692 282.837666,209.830367 286.063381,212.817704 289.799851,215.681918 284.971447,236.335197 278.762643,263.934430 271.335978,299.277506 266.090743,320.586198 262.362595,325.404130 257.436642,328.256773 250.477322,331.746463"/>
    <poly id="108140816#1" type="natural.wood" color="140,196,107" fill="1" layer="-4.00" shape="250.477322,331.746463 246.591951,332.738015 243.212834,331.513391 238.848618,322.618066 238.588047,311.334418 238.494852,297.263457 229.209984,285.486785 216.456270,281.350097 209.371256,276.960028 204.258231,271.444438 200.996809,264.472088 187.349974,253.943049 172.022561,250.378106 166.068734,252.931723 160.621996,253.035327 156.419016,255.192214 152.292709,256.601369 148.543571,254.004776 147.206881,246.576026 150.171724,234.750208 148.390495,225.160642 147.077732,216.328480 143.721076,209.848257 143.174858,201.933617 145.627210,198.013507 150.455301,197.155952 153.024680,198.299019 157.440065,203.975415 161.980348,204.215636 165.352676,201.888677 171.611596,192.747939 176.831948,191.246723 181.755819,191.823250 184.500339,196.480568 185.053716,202.268489 185.455319,207.180348 188.124871,212.117745 191.230169,215.040993 202.865180,219.003047 210.608927,217.198638 217.874012,214.737270 234.341207,207.442878 248.067091,201.592436 260.910026,197.376822 269.187874,196.729236 275.932291,197.486518 277.956911,198.909444 279.100916,202.612855 280.118087,208.690692 282.837666,209.830367 286.063381,212.817704 289.799851,215.681918 284.971447,236.335197 278.762643,263.934430 271.335978,299.277506 266.090743,320.586198 262.362595,325.404130 257.436642,328.256773 250.477322,331.746463"/>
    <poly id="1155216144" type="landuse.grass" color="194,194,130" fill="1" layer="-3.00" shape="451.438690,258.860861 455.448274,255.372669 453.163507,252.441465 448.892300,254.633037 451.438690,258.860861"/>
    <poly id="118339338" type="landuse.grass" color="194,194,130" fill="1" layer="-3.00" shape="398.800395,284.345773 415.680630,284.101362 415.614045,279.582583 421.649952,279.499119 429.311351,294.776208 427.822441,297.026147 398.983170,297.434882 398.800395,284.345773"/>
    <poly id="122277871" type="amenity.parking" color="184,184,179" fill="1" layer="-1.00" shape="230.829107,364.543858 264.707071,355.333301 266.047816,360.234616 232.169889,369.445164 230.829107,364.543858"/>
    <poly id="124905642" type="amenity.clinic" color="237,199,199" fill="1" layer="-2.00" shape="504.170821,166.171030 540.220553,181.830046 498.319843,270.829599 485.391833,257.755725 481.167534,253.555400 466.661189,236.409576 454.165400,214.919834 447.643014,202.321960 443.972458,191.985334 443.140046,180.325189 442.637323,163.402307 442.814412,144.994101 462.840506,151.591469 482.800238,158.301794 504.170821,166.171030"/>
    <poly id="124978049" type="amenity.kindergarten" color="237,199,199" fill="1" layer="-2.00" shape="537.971547,172.017309 505.086476,156.975718 497.360798,137.001530 501.474166,126.318583 498.509519,117.257173 441.117476,97.993023 432.250557,72.545155 538.803901,50.372923 585.788012,71.904196 537.971547,172.017309"/>
    <poly id="128636336" type="amenity.parking" color="184,184,179" fill="1" layer="-1.00" shape="520.724491,233.327248 544.003898,187.009217 549.294880,189.659722 526.021694,235.977580 520.724491,233.327248"/>
    <poly id="128657548" type="landuse.grass" color="194,194,130" fill="1" layer="-3.00" shape="241.298692,344.094242 240.296502,344.362329 239.281464,344.074023 238.358217,342.336204 237.677912,340.269895 237.981235,339.572595 242.220515,337.904834 246.578129,336.479289 251.436211,334.485502 255.982681,332.287374 256.599749,332.429000 259.723554,337.244610 259.638811,337.914594 249.656746,341.507478 241.298692,344.094242"/>
    <poly id="128657549" type="landuse.grass" color="194,194,130" fill="1" layer="-3.00" shape="218.198714,354.347540 220.470039,353.437776 221.517164,352.945971 221.384547,351.000620 220.357246,350.723735 211.316551,353.582404 187.541696,360.644925 167.421740,366.498600 140.902202,374.036762 111.052010,383.255370 71.180423,395.433774 50.098657,401.933747 49.693667,402.566611 50.336495,404.633760 51.213383,404.635739 56.259276,402.915728 69.156407,398.909807 106.169102,387.420984 151.886273,373.426589 181.752810,364.909319 204.790677,358.208938 218.198714,354.347540"/>
    <poly id="128738974" type="landuse.grass" color="194,194,130" fill="1" layer="-3.00" shape="514.143000,288.323744 515.185047,289.513328 516.760729,290.757425 519.109973,292.139583 521.406317,293.400488 525.108771,295.341577 528.052595,296.977259 529.582255,297.855006 529.479715,298.569928 528.366468,298.640097 525.735347,298.344400 523.416821,297.752030 520.935792,297.174536 518.568174,296.082279 514.013301,293.570736 510.166275,290.519608 507.976307,288.710704 508.043848,288.107925 508.743902,287.501713 509.742056,287.601197 511.776694,287.832684 514.143000,288.323744"/>
    <poly id="128738975" type="landuse.grass" color="194,194,130" fill="1" layer="-3.00" shape="512.830198,286.528039 510.573751,285.911978 509.132235,285.054474 508.059141,283.876741 507.280522,282.703360 507.399751,281.353428 509.158693,279.676255 517.368204,275.523576 525.010704,272.586416 532.232361,271.228820 540.599524,270.657629 549.721474,270.224951 563.643223,270.427772 567.622961,271.082133 569.819909,272.378753 570.301619,273.714851 569.702233,276.790431 567.272306,285.508427 565.730733,286.289872 562.811793,286.279122 547.327295,286.479695 537.299955,286.487874 526.377438,286.516689 516.201651,286.606271 512.830198,286.528039"/>
    <poly id="128738977" type="landuse.grass" color="194,194,130" fill="1" layer="-3.00" shape="504.287745,284.653893 505.007637,282.733439 507.917472,285.884082 506.351126,286.677252 504.287745,284.653893"/>
    <poly id="128738978" type="landuse.grass" color="194,194,130" fill="1" layer="-3.00" shape="528.108794,294.793746 523.934684,293.041655 518.819709,290.142189 516.762120,288.641977 517.393718,288.326821 527.372257,288.375388 528.108794,294.793746"/>
    <poly id="128738979" type="landuse.grass" color="194,194,130" fill="1" layer="-3.00" shape="532.495988,298.455943 531.456576,288.403816 547.427185,288.370136 566.758627,288.225755 563.804322,295.385962 561.922166,298.513338 543.881087,298.661436 532.495988,298.455943"/>
    <poly id="128738981" type="leisure.garden" color="207,245,201" fill="1" layer="-2.00" shape="551.983627,336.930930 550.845765,335.387264 549.141981,334.290843 546.978327,333.895303 544.946565,334.331760 543.164609,335.552964 541.997439,337.361238 541.619163,339.429694 542.074733,341.534621 543.298588,343.276713 545.015402,344.395100 547.229130,344.789486 549.471418,344.247979 551.060340,343.075756 552.231466,341.167190 552.542682,339.178215 551.983627,336.930930"/>
    <poly id="129748486" type="amenity.parking" color="184,184,179" fill="1" layer="-1.00" shape="406.403727,161.799148 411.529308,173.571863 416.695010,171.326236 411.569442,159.553515 406.403727,161.799148"/>
    <poly id="129748489" type="amenity.parking" color="184,184,179" fill="1" layer="-1.00" shape="423.470630,172.350240 416.063031,154.506537 421.324456,152.336647 428.731780,170.169230 423.470630,172.350240"/>
    <poly id="23242758" type="building.apartments" color="255,230,230" fill="1" layer="-1.00" shape="556.005739,227.872189 556.075556,231.177310 554.303961,231.218090 554.586788,244.048809 554.648522,246.730625 546.134625,246.915484 546.071974,243.921944 527.835982,244.319531 528.109666,256.749646 531.828115,256.664028 531.877710,259.090047 545.574873,258.785830 545.610995,260.354859 549.323181,260.269401 553.035367,260.183945 552.879333,252.861520 559.934377,252.699120 559.966395,254.090104 566.977872,253.939852 566.832250,247.340882 568.704255,247.308929 568.269447,227.601044 556.005739,227.872189"/>
    <poly id="23242762" type="building.hospital" color="255,230,230" fill="1" layer="-1.00" shape="473.837389,177.613813 468.299463,190.890379 462.232884,205.414982 504.666600,223.053162 509.937492,210.417419 516.271319,195.252109 473.837389,177.613813"/>
    <poly id="313224099" type="landuse.grass" color="194,194,130" fill="1" layer="-3.00" shape="439.722773,395.408257 457.370753,359.462552 454.996122,358.337090 437.000019,394.123823 439.722773,395.408257"/>
    <poly id="313224100" type="landuse.grass" color="194,194,130" fill="1" layer="-3.00" shape="444.304889,397.473742 462.306570,362.199067 459.762925,361.077497 442.266148,396.518688 444.304889,397.473742"/>
    <poly id="353650802" type="amenity.parking" color="184,184,179" fill="1" layer="-1.00" shape="455.448274,255.372669 451.438690,258.860861 465.101851,274.478467 482.712002,291.508246 486.431933,287.681607 468.821783,270.651813 455.448274,255.372669"/>
    <poly id="359568400" type="leisure.playground" color="207,245,201" fill="1" layer="-2.00" shape="398.491490,379.880717 390.758611,387.307107 383.103824,379.378227 390.830445,371.951968 398.491490,379.880717"/>
    <poly id="36524251" type="amenity.parking" color="184,184,179" fill="1" layer="-1.00" shape="508.797309,386.635566 520.210442,389.156167 529.817396,395.381397 588.372224,548.091403 599.671562,542.965921 522.790559,355.417101 512.085082,374.925057 509.060116,376.019030 472.949132,350.842354 469.882541,355.566923 467.164564,359.927182 508.797309,386.635566"/>
    <poly id="37908199" type="amenity.fast_food" color="237,199,199" fill="1" layer="-1.00" shape="398.800395,284.345773 398.572621,268.218181 415.452919,267.973769 415.614045,279.582583 415.680630,284.101362 398.800395,284.345773"/>
    <poly id="37908199#1" type="building.retail" color="255,230,230" fill="1" layer="-1.00" shape="398.800395,284.345773 398.572621,268.218181 415.452919,267.973769 415.614045,279.582583 415.680630,284.101362 398.800395,284.345773"/>
    <poly id="37908209" type="landuse.residential" color="235,235,227" fill="1" layer="-3.00" shape="532.200434,327.510746 531.760679,323.100766 532.672554,318.637397 535.962285,315.711408 540.463475,314.260588 577.906551,313.231687 621.236813,312.735699 707.897577,311.756152 720.231504,314.823940 773.806796,314.261048 787.837325,310.754548 853.687350,310.411778 879.852103,308.642312 910.197890,305.930935 935.289504,301.336186 973.907005,293.069122 1011.470891,282.822479 1049.989021,270.205096 1065.601432,269.847518 1084.441179,263.548629 1111.090532,253.385786 1134.633499,239.942954 1163.692208,225.026879 1200.514764,204.232981 1241.136405,180.836341 1270.007766,165.090260 1288.583617,154.612044 1326.453621,135.476512 1347.557510,125.430700 1369.264349,119.568629 1389.978844,114.408475 1412.367061,109.032088 1437.278453,103.609385 1462.056495,100.026928 1485.108510,101.505262 1522.941289,111.731850 1560.588949,117.965991 1564.353873,121.565451 1568.062183,129.552871 1554.961394,207.163639 1403.642489,1102.535165 1399.563504,1124.372421 1396.390315,1132.672680 1392.401223,1135.680792 1362.201442,1133.019198 1303.550184,1126.932991 1277.262543,1125.028744 1253.640389,1122.484756 1228.476871,1120.176553 1199.141595,1115.625851 1172.062263,1108.685638 1144.958678,1100.142890 1117.391353,1091.043104 1085.464067,1079.694128 1061.886017,1070.893003 1035.653191,1059.926088 1013.522686,1049.811670 982.197642,1031.980929 945.364759,1008.008428 913.091801,985.189722 890.406705,968.130042 865.679600,948.601117 838.963936,924.297067 813.364111,896.237740 796.554932,876.839108 778.301014,856.983840 758.981175,835.171327 748.111135,822.160793 736.423568,806.552639 709.227538,764.145752 689.421629,725.855600 668.950193,683.149596 651.934504,640.675940 629.358663,584.657988 616.241295,549.142449 609.052842,528.242761 600.803257,507.501106 581.751221,457.425653 562.386761,408.760320 544.181753,362.050179 532.200434,327.510746"/>
    <poly id="530204429" type="leisure.park" color="207,245,201" fill="0" layer="-2.00" shape="-25.797049,417.140058 41.545332,397.154840 43.621951,396.494430 74.459597,386.651283 114.614596,374.265951 171.326171,358.202762 199.295242,349.963276 205.167814,348.235479 247.714251,333.602804 255.636308,330.035212 262.167554,326.722420 267.131920,321.463998 271.829974,300.056601 279.151667,265.049963 285.347886,236.905465 290.989521,213.494506 301.062577,178.546892 308.493868,154.782917 315.270359,132.225381 317.085098,129.166254 319.182773,125.610713 322.193920,114.953013 324.575481,94.924063 325.772611,90.342727 328.373212,81.164164 329.773841,75.086209 333.898187,54.304500 338.667763,24.834701 343.382736,-2.117597 347.367784,-33.562230 348.902517,-47.136300 351.009567,-62.783318 351.692422,-78.531092 351.811405,-89.667611 347.974714,-92.251228 345.187131,-93.344846"/>
    <poly id="54369431" type="amenity.fuel" color="237,199,199" fill="1" layer="-1.00" shape="348.597574,183.774160 354.403902,184.864949 362.777188,186.453231 364.575831,176.992572 355.869200,175.345171 350.396188,174.313495 348.597574,183.774160"/>
    <poly id="54369431#1" type="building.retail" color="255,230,230" fill="1" layer="-1.00" shape="348.597574,183.774160 354.403902,184.864949 362.777188,186.453231 364.575831,176.992572 355.869200,175.345171 350.396188,174.313495 348.597574,183.774160"/>
    <poly id="581246362" type="landuse.residential" color="235,235,227" fill="0" layer="-3.00" shape="220.116189,384.486969 61.899809,429.606582"/>
    <poi id="8946664617" type="shop.newsagent" color="237,199,255" layer="4.00" x="495.86" y="264.19"/>
    <poi id="9748886708" type="amenity.payment_terminal" color="237,199,199" layer="4.00" x="507.62" y="208.07"/>
</additional>
