<?xml version="1.0" encoding="UTF-8"?>

<!-- generated on 2024-05-18 19:40:43 by Eclipse SUMO netedit Version 1.19.0
<configuration xmlns:xsi="http://www.w3.org/2001/XMLSchema-instance" xsi:noNamespaceSchemaLocation="http://sumo.dlr.de/xsd/neteditConfiguration.xsd">

    <input>
        <sumo-net-file value="/home/pavel/dev/tssproblem/commercial/net/osm.net.xml"/>
    </input>

    <output>
        <output-file value="/home/pavel/dev/tssproblem/commercial/net/osm.net.xml"/>
        <output.street-names value="true"/>
    </output>

    <processing>
        <geometry.min-radius.fix.railways value="false"/>
        <geometry.max-grade.fix value="false"/>
        <offset.disable-normalization value="true"/>
        <lefthand value="0"/>
    </processing>

    <junctions>
        <no-turnarounds value="true"/>
        <junctions.corner-detail value="5"/>
        <junctions.limit-turn-speed value="5.50"/>
        <rectangular-lane-cut value="0"/>
    </junctions>

    <pedestrian>
        <walkingareas value="0"/>
    </pedestrian>

</configuration>
-->

<net version="1.16" junctionCornerDetail="5" limitTurnSpeed="5.50" xmlns:xsi="http://www.w3.org/2001/XMLSchema-instance" xsi:noNamespaceSchemaLocation="http://sumo.dlr.de/xsd/net_file.xsd">

    <location netOffset="-399694.65,-6190280.98" convBoundary="56.91,214.92,620.78,472.57" origBoundary="37.394578,55.835607,37.454212,55.858484" projParameter="+proj=utm +zone=37 +ellps=WGS84 +datum=WGS84 +units=m +no_defs"/>

    <type id="highway.secondary" priority="11" numLanes="1" speed="27.78" disallow="tram rail_urban rail rail_electric rail_fast ship" oneway="0"/>
    <type id="highway.secondary_link" priority="6" numLanes="1" speed="22.22" disallow="tram rail_urban rail rail_electric rail_fast ship" oneway="0"/>

    <edge id=":248441665_0" function="internal">
        <lane id=":248441665_0_0" index="0" disallow="pedestrian tram rail_urban rail rail_electric rail_fast ship" speed="15.28" length="14.92" shape="293.81,335.48 289.82,337.33 287.03,338.50 284.30,339.77 280.49,341.95"/>
        <lane id=":248441665_0_1" index="1" disallow="pedestrian tram rail_urban rail rail_electric rail_fast ship" speed="15.28" length="14.92" shape="292.30,332.66 288.26,334.53 285.44,335.72 282.68,337.01 278.82,339.22"/>
    </edge>
    <edge id=":248441665_2" function="internal">
        <lane id=":248441665_2_0" index="0" disallow="pedestrian tram rail_urban rail rail_electric rail_fast ship" speed="18.05" length="14.70" shape="275.49,333.75 278.88,331.20 280.61,328.81 281.94,325.99 284.10,322.17"/>
        <lane id=":248441665_2_1" index="1" disallow="pedestrian tram rail_urban rail rail_electric rail_fast ship" speed="18.05" length="15.02" shape="275.49,333.75 279.33,331.48 281.92,329.78 284.10,327.64 286.69,324.06"/>
    </edge>
    <edge id=":248441665_4" function="internal">
        <lane id=":248441665_4_0" index="0" disallow="pedestrian tram rail_urban rail rail_electric rail_fast ship" speed="15.28" length="15.26" shape="275.49,333.75 279.44,331.49 282.25,330.16 285.13,328.94 289.26,327.02"/>
        <lane id=":248441665_4_1" index="1" disallow="pedestrian tram rail_urban rail rail_electric rail_fast ship" speed="15.28" length="15.26" shape="277.16,336.48 281.06,334.25 283.85,332.94 286.69,331.74 290.78,329.84"/>
    </edge>
    <edge id=":248639719_0" function="internal">
        <lane id=":248639719_0_0" index="0" disallow="pedestrian tram rail_urban rail rail_electric rail_fast ship" speed="10.90" length="16.91" shape="514.77,320.39 512.16,316.54 509.06,313.79 505.45,312.13 501.34,311.56"/>
        <lane id=":248639719_0_1" index="1" disallow="pedestrian tram rail_urban rail rail_electric rail_fast ship" speed="11.47" length="18.80" shape="514.77,320.39 511.52,315.14 508.20,311.38 504.81,309.13 501.36,308.36"/>
    </edge>
    <edge id=":248639719_2" function="internal">
        <lane id=":248639719_2_0" index="0" disallow="pedestrian tram rail_urban rail rail_electric rail_fast ship" speed="15.28" length="26.14" shape="517.59,318.88 504.71,296.12"/>
    </edge>
    <edge id=":248639719_3" function="internal">
        <lane id=":248639719_3_0" index="0" disallow="pedestrian tram rail_urban rail rail_electric rail_fast ship" speed="8.83" length="23.85" shape="517.59,318.88 514.60,311.51 514.63,306.22 517.67,302.98 523.73,301.81"/>
        <lane id=":248639719_3_1" index="1" disallow="pedestrian tram rail_urban rail rail_electric rail_fast ship" speed="8.16" length="20.13" shape="517.59,318.88 515.24,312.90 515.49,308.60 518.34,305.97 523.78,305.01"/>
    </edge>
    <edge id=":248639719_5" function="internal">
        <lane id=":248639719_5_0" index="0" disallow="pedestrian tram rail_urban rail rail_electric rail_fast ship" speed="5.72" length="9.19" shape="523.90,311.41 521.20,311.83 519.72,312.96 519.46,314.81 520.41,317.36"/>
    </edge>
    <edge id=":248639719_6" function="internal">
        <lane id=":248639719_6_0" index="0" disallow="pedestrian tram rail_urban rail rail_electric rail_fast ship" speed="16.67" length="22.52" shape="523.90,311.41 501.34,311.56"/>
        <lane id=":248639719_6_1" index="1" disallow="pedestrian tram rail_urban rail rail_electric rail_fast ship" speed="16.67" length="22.52" shape="523.84,308.21 501.36,308.36"/>
    </edge>
    <edge id=":248639719_8" function="internal">
        <lane id=":248639719_8_0" index="0" disallow="pedestrian tram rail_urban rail rail_electric rail_fast ship" speed="11.08" length="17.01" shape="510.21,292.85 513.09,296.83 516.30,299.65 519.85,301.31 523.73,301.81"/>
        <lane id=":248639719_8_1" index="1" disallow="pedestrian tram rail_urban rail rail_electric rail_fast ship" speed="11.66" length="18.90" shape="510.21,292.85 513.80,298.21 517.26,302.03 520.59,304.29 523.78,305.01"/>
    </edge>
    <edge id=":248639719_10" function="internal">
        <lane id=":248639719_10_0" index="0" disallow="pedestrian tram rail_urban rail rail_electric rail_fast ship" speed="15.28" length="26.29" shape="507.46,294.49 520.41,317.36"/>
    </edge>
    <edge id=":248639719_11" function="internal">
        <lane id=":248639719_11_0" index="0" disallow="pedestrian tram rail_urban rail rail_electric rail_fast ship" speed="8.82" length="24.70" shape="507.46,294.49 510.91,301.98 511.04,307.33 507.85,310.52 501.34,311.56"/>
        <lane id=":248639719_11_1" index="1" disallow="pedestrian tram rail_urban rail rail_electric rail_fast ship" speed="8.14" length="20.79" shape="507.46,294.49 510.19,300.58 510.09,304.92 507.14,307.52 501.36,308.36"/>
    </edge>
    <edge id=":248639719_13" function="internal">
        <lane id=":248639719_13_0" index="0" disallow="pedestrian tram rail_urban rail rail_electric rail_fast ship" speed="16.67" length="22.35" shape="501.38,301.96 523.73,301.81"/>
    </edge>
    <edge id=":248639719_14" function="internal">
        <lane id=":248639719_14_0" index="0" disallow="pedestrian tram rail_urban rail rail_electric rail_fast ship" speed="12.86" length="23.81" shape="501.37,305.16 507.26,305.95 512.39,308.24 516.78,312.05 520.41,317.36"/>
    </edge>
    <edge id=":275104766_0" function="internal">
        <lane id=":275104766_0_0" index="0" disallow="pedestrian tram rail_urban rail rail_electric rail_fast ship" speed="10.69" length="16.26" shape="309.43,285.13 309.35,288.69 310.46,292.20 312.77,295.64 316.29,299.01"/>
    </edge>
    <edge id=":275104766_1" function="internal">
        <lane id=":275104766_1_0" index="0" disallow="pedestrian tram rail_urban rail rail_electric rail_fast ship" speed="16.67" length="25.04" shape="306.29,284.53 306.10,291.12 307.65,296.78 309.91,302.44 311.85,309.03"/>
        <lane id=":275104766_1_1" index="1" disallow="pedestrian tram rail_urban rail rail_electric rail_fast ship" speed="16.67" length="25.04" shape="306.29,284.53 305.58,291.10 306.01,296.70 307.14,302.30 308.56,308.86"/>
    </edge>
    <edge id=":275104766_3" function="internal">
        <lane id=":275104766_3_0" index="0" disallow="pedestrian tram rail_urban rail rail_electric rail_fast ship" speed="19.45" length="25.36" shape="292.74,307.76 295.40,301.50 297.25,295.83 298.67,290.02 300.00,283.33"/>
        <lane id=":275104766_3_1" index="1" disallow="pedestrian tram rail_urban rail rail_electric rail_fast ship" speed="19.45" length="25.36" shape="296.16,308.00 298.77,301.80 300.54,296.25 301.86,290.56 303.14,283.93"/>
    </edge>
    <edge id=":275104766_5" function="internal">
        <lane id=":275104766_5_0" index="0" disallow="pedestrian tram rail_urban rail rail_electric rail_fast ship" speed="16.67" length="25.25" shape="301.97,308.51 300.59,301.82 299.57,295.93 299.25,290.03 300.00,283.33"/>
        <lane id=":275104766_5_1" index="1" disallow="pedestrian tram rail_urban rail rail_electric rail_fast ship" speed="16.67" length="25.25" shape="305.26,308.68 303.86,302.06 302.79,296.31 302.42,290.56 303.14,283.93"/>
    </edge>
    <edge id=":cluster_248639723_301120787_926163261_0" function="internal">
        <lane id=":cluster_248639723_301120787_926163261_0_0" index="0" disallow="pedestrian tram rail_urban rail rail_electric rail_fast ship" speed="16.67" length="45.73" shape="346.66,315.55 337.08,317.49 325.06,321.51 313.23,326.25 304.22,330.35"/>
        <lane id=":cluster_248639723_301120787_926163261_0_1" index="1" disallow="pedestrian tram rail_urban rail rail_electric rail_fast ship" speed="16.67" length="45.73" shape="346.47,312.36 336.70,314.35 324.26,318.48 312.00,323.33 302.80,327.48"/>
    </edge>
    <edge id=":cluster_248639723_301120787_926163261_2" function="internal">
        <lane id=":cluster_248639723_301120787_926163261_2_0" index="0" disallow="pedestrian tram rail_urban rail rail_electric rail_fast ship" speed="15.20" length="43.40" shape="346.47,312.36 339.32,312.81 324.54,313.67 309.89,314.35 303.13,314.23"/>
        <lane id=":cluster_248639723_301120787_926163261_2_1" index="1" disallow="pedestrian tram rail_urban rail rail_electric rail_fast ship" speed="14.67" length="40.38" shape="346.47,312.36 329.02,313.29 316.49,313.75 308.87,313.74 306.17,313.24"/>
    </edge>
    <edge id=":cluster_248639723_301120787_926163261_4" function="internal">
        <lane id=":cluster_248639723_301120787_926163261_4_0" index="0" disallow="pedestrian tram rail_urban rail rail_electric rail_fast ship" speed="19.45" length="19.78" shape="326.73,305.51 330.39,306.36 334.56,306.58 339.66,306.37 346.10,305.97"/>
        <lane id=":cluster_248639723_301120787_926163261_4_1" index="1" disallow="pedestrian tram rail_urban rail rail_electric rail_fast ship" speed="19.45" length="19.78" shape="326.73,305.51 330.38,306.87 334.56,308.18 339.71,309.07 346.29,309.16"/>
    </edge>
    <edge id=":cluster_248639723_301120787_926163261_6" function="internal">
        <lane id=":cluster_248639723_301120787_926163261_6_0" index="0" disallow="pedestrian tram rail_urban rail rail_electric rail_fast ship" speed="11.09" length="22.47" shape="312.28,311.25 312.79,317.62 311.61,322.92 308.75,327.16 304.22,330.35"/>
        <lane id=":cluster_248639723_301120787_926163261_6_1" index="1" disallow="pedestrian tram rail_urban rail rail_electric rail_fast ship" speed="9.94" length="17.91" shape="309.22,312.25 309.62,317.33 308.68,321.56 306.41,324.94 302.80,327.48"/>
    </edge>
    <edge id=":cluster_248639723_301120787_926163261_8" function="internal">
        <lane id=":cluster_248639723_301120787_926163261_8_0" index="0" disallow="pedestrian tram rail_urban rail rail_electric rail_fast ship" speed="16.67" length="48.25" shape="299.97,321.74 309.56,317.49 322.65,312.41 335.94,308.06 346.10,305.97"/>
        <lane id=":cluster_248639723_301120787_926163261_8_1" index="1" disallow="pedestrian tram rail_urban rail rail_electric rail_fast ship" speed="16.67" length="48.25" shape="301.38,324.61 310.78,320.41 323.45,315.45 336.32,311.20 346.29,309.16"/>
    </edge>

    <edge id="-1124777488" from="248441665" to="cluster_248639723_301120787_926163261" name="улица Саломеи Нерис" priority="11" type="highway.secondary" shape="273.18,340.78 283.91,335.01 310.65,321.82">
        <lane id="-1124777488_0" index="0" disallow="pedestrian tram rail_urban rail rail_electric rail_fast ship" speed="16.67" length="11.88" shape="289.26,327.02 299.97,321.74">
            <param key="origId" value="1124777488 1057892462"/>
        </lane>
        <lane id="-1124777488_1" index="1" disallow="pedestrian tram rail_urban rail rail_electric rail_fast ship" speed="16.67" length="11.88" shape="290.78,329.84 301.38,324.61">
            <param key="origId" value="1124777488 1057892462"/>
        </lane>
        <param key="origTo" value="301120787"/>
    </edge>
    <edge id="-1160720735#1" from="cluster_248639723_301120787_926163261" to="248639719" name="улица Саломеи Нерис" priority="11" type="highway.secondary" shape="346.38,310.76 364.71,309.68 367.97,309.48 392.12,308.33 445.15,307.53 457.01,307.44 466.45,307.20 492.63,306.73 512.94,306.81">
        <lane id="-1160720735#1_0" index="0" disallow="pedestrian tram rail_urban rail rail_electric rail_fast ship" speed="16.67" length="155.26" shape="346.10,305.97 364.43,304.89 367.71,304.69 391.97,303.53 445.08,302.73 456.93,302.64 466.35,302.40 492.60,301.93 501.38,301.96">
            <param key="origId" value="1160720735 127383142 127383142 1084075355 23019070 23019070"/>
        </lane>
        <lane id="-1160720735#1_1" index="1" disallow="pedestrian tram rail_urban rail rail_electric rail_fast ship" speed="16.67" length="155.26" shape="346.29,309.16 364.62,308.08 367.88,307.88 392.07,306.73 445.13,305.93 456.98,305.84 466.42,305.60 492.62,305.13 501.37,305.16">
            <param key="origId" value="1160720735 127383142 127383142 1084075355 23019070 23019070"/>
        </lane>
        <param key="origFrom" value="926163261"/>
    </edge>
    <edge id="-23114445#1" from="275104766" to="cluster_248639723_301120787_926163261" name="Светлогорский проезд" priority="11" type="highway.secondary" shape="305.42,280.53 304.82,291.02 305.48,301.41 307.67,312.67 310.65,321.82">
        <lane id="-23114445#1_0" index="0" disallow="pedestrian tram rail_urban rail rail_electric rail_fast ship" speed="16.67" length="2.86" shape="311.85,309.03 312.28,311.25">
            <param key="origId" value="23114445"/>
        </lane>
        <lane id="-23114445#1_1" index="1" disallow="pedestrian tram rail_urban rail rail_electric rail_fast ship" speed="16.67" length="2.86" shape="308.56,308.86 309.22,312.25">
            <param key="origId" value="23114445"/>
        </lane>
        <param key="origTo" value="301120787"/>
    </edge>
    <edge id="-E0" from="248639719" to="J0" priority="-1">
        <lane id="-E0_0" index="0" speed="13.89" length="42.31" shape="504.71,296.12 483.07,259.77"/>
    </edge>
    <edge id="1057892462" from="cluster_248639723_301120787_926163261" to="248441665" name="улица Саломеи Нерис" priority="11" type="highway.secondary" shape="310.65,321.82 283.91,335.01 273.18,340.78">
        <lane id="1057892462_0" index="0" disallow="pedestrian tram rail_urban rail rail_electric rail_fast ship" speed="16.67" length="11.65" shape="304.22,330.35 293.81,335.48">
            <param key="origId" value="1057892462 1124777488"/>
        </lane>
        <lane id="1057892462_1" index="1" disallow="pedestrian tram rail_urban rail rail_electric rail_fast ship" speed="16.67" length="11.65" shape="302.80,327.48 292.30,332.66">
            <param key="origId" value="1057892462 1124777488"/>
        </lane>
        <param key="origFrom" value="301120787"/>
    </edge>
    <edge id="1057892464#0" from="248441665" to="275104766" priority="6" type="highway.secondary_link" spreadType="center" shape="273.18,340.78 280.05,331.41 285.08,323.59 291.97,313.20 297.82,300.66 301.63,292.40 302.37,279.56">
        <lane id="1057892464#0_0" index="0" disallow="pedestrian tram rail_urban rail rail_electric rail_fast ship" speed="22.22" length="17.77" shape="284.10,322.17 290.57,312.42 292.74,307.76">
            <param key="origId" value="1057892464"/>
        </lane>
        <lane id="1057892464#0_1" index="1" disallow="pedestrian tram rail_urban rail rail_electric rail_fast ship" speed="22.22" length="17.77" shape="286.69,324.06 293.37,313.98 296.16,308.00">
            <param key="origId" value="1057892464"/>
        </lane>
    </edge>
    <edge id="1057892465#0" from="275104766" to="cluster_248639723_301120787_926163261" priority="6" type="highway.secondary_link" spreadType="center" shape="305.42,280.53 307.23,286.36 308.58,289.51 309.54,291.76 313.43,296.69 318.14,300.52 323.89,304.51 334.36,308.20 346.38,310.76">
        <lane id="1057892465#0_0" index="0" disallow="pedestrian tram rail_urban rail rail_electric rail_fast ship" speed="22.22" length="12.40" shape="316.29,299.01 318.14,300.52 323.89,304.51 326.73,305.51">
            <param key="origId" value="1057892465"/>
        </lane>
        <param key="origTo" value="926163261"/>
    </edge>
    <edge id="23019070#0" from="248639719" to="cluster_248639723_301120787_926163261" name="улица Саломеи Нерис" priority="11" type="highway.secondary" shape="512.94,306.81 492.63,306.73 466.45,307.20 457.01,307.44 445.15,307.53 392.12,308.33 367.97,309.48 364.71,309.68 346.38,310.76">
        <lane id="23019070#0_0" index="0" disallow="pedestrian tram rail_urban rail rail_electric rail_fast ship" speed="16.67" length="154.86" shape="501.34,311.56 492.66,311.53 466.55,312.00 457.09,312.24 445.20,312.33 392.27,313.13 368.21,314.27 364.99,314.47 346.66,315.55">
            <param key="origId" value="23019070 23019070 1084075355 127383142 127383142 1160720735"/>
        </lane>
        <lane id="23019070#0_1" index="1" disallow="pedestrian tram rail_urban rail rail_electric rail_fast ship" speed="16.67" length="154.86" shape="501.36,308.36 492.64,308.33 466.48,308.80 457.04,309.04 445.17,309.13 392.17,309.93 368.05,311.08 364.80,311.28 346.47,312.36">
            <param key="origId" value="23019070 23019070 1084075355 127383142 127383142 1160720735"/>
        </lane>
        <param key="origTo" value="926163261"/>
    </edge>
    <edge id="23114445#0" from="cluster_248639723_301120787_926163261" to="275104766" name="Светлогорский проезд" priority="11" type="highway.secondary" shape="310.65,321.82 307.67,312.67 305.48,301.41 304.82,291.02 305.42,280.53">
        <lane id="23114445#0_0" index="0" disallow="pedestrian tram rail_urban rail rail_electric rail_fast ship" speed="16.67" length="5.25" shape="303.13,314.23 303.01,313.88 301.97,308.51">
            <param key="origId" value="23114445"/>
        </lane>
        <lane id="23114445#0_1" index="1" disallow="pedestrian tram rail_urban rail rail_electric rail_fast ship" speed="16.67" length="5.25" shape="306.17,313.24 306.12,313.07 305.26,308.68">
            <param key="origId" value="23114445"/>
        </lane>
        <param key="origFrom" value="301120787"/>
    </edge>
    <edge id="6586" from="248639719" to="248789709" name="бульвар Яна Райниса" priority="11" type="highway.secondary">
        <lane id="6586_0" index="0" disallow="pedestrian tram rail_urban rail rail_electric rail_fast ship" speed="16.67" length="96.98" shape="523.73,301.81 620.69,300.04">
            <param key="origId" value="23044868 66665847 66665847 66665847"/>
        </lane>
        <lane id="6586_1" index="1" disallow="pedestrian tram rail_urban rail rail_electric rail_fast ship" speed="16.67" length="96.98" shape="523.78,305.01 620.75,303.24">
            <param key="origId" value="23044868 66665847 66665847 66665847"/>
        </lane>
    </edge>
    <edge id="6587" from="248789709" to="248639719" name="бульвар Яна Райниса" priority="11" type="highway.secondary">
        <lane id="6587_0" index="0" disallow="pedestrian tram rail_urban rail rail_electric rail_fast ship" speed="16.67" length="96.98" shape="620.87,309.64 523.90,311.41">
            <param key="origId" value="66665847 66665847 66665847 23044868"/>
        </lane>
        <lane id="6587_1" index="1" disallow="pedestrian tram rail_urban rail rail_electric rail_fast ship" speed="16.67" length="96.98" shape="620.81,306.44 523.84,308.21">
            <param key="origId" value="66665847 66665847 66665847 23044868"/>
        </lane>
    </edge>
    <edge id="6590" from="248639719" to="248762773" name="улица Героев Панфиловцев" priority="11" type="highway.secondary" length="160.00" shape="512.94,306.81 573.55,419.96">
        <lane id="6590_0" index="0" disallow="pedestrian tram rail_urban rail rail_electric rail_fast ship" speed="16.67" length="160.00" shape="520.41,317.36 575.48,420.17">
            <param key="origId" value="1001148929 1001148929 984862104"/>
        </lane>
    </edge>
    <edge id="6591" from="248762773" to="248639719" name="улица Героев Панфиловцев" priority="11" type="highway.secondary" length="160.00" shape="573.55,419.96 512.94,306.81">
        <lane id="6591_0" index="0" disallow="pedestrian tram rail_urban rail rail_electric rail_fast ship" speed="16.67" length="160.00" shape="569.84,423.19 514.77,320.39">
            <param key="origId" value="984862104 1001148929 1001148929"/>
        </lane>
        <lane id="6591_1" index="1" disallow="pedestrian tram rail_urban rail rail_electric rail_fast ship" speed="16.67" length="160.00" shape="572.66,421.68 517.59,318.88">
            <param key="origId" value="984862104 1001148929 1001148929"/>
        </lane>
    </edge>
    <edge id="900700" from="348227575" to="248441665" priority="-1">
        <lane id="900700_0" index="0" speed="13.89" length="258.89" shape="54.41,468.47 275.49,333.75"/>
        <lane id="900700_1" index="1" speed="13.89" length="258.89" shape="56.08,471.20 277.16,336.48"/>
    </edge>
    <edge id="900701" from="248441665" to="348227575" priority="-1">
        <lane id="900701_0" index="0" speed="13.89" length="258.89" shape="280.49,341.95 59.41,476.67"/>
        <lane id="900701_1" index="1" speed="13.89" length="258.89" shape="278.82,339.22 57.74,473.94"/>
    </edge>
    <edge id="900768" from="275104766" to="9113518585" name="Светлогорский проезд" priority="11" type="highway.secondary">
        <lane id="900768_0" index="0" disallow="pedestrian tram rail_urban rail rail_electric rail_fast ship" speed="16.67" length="70.56" shape="300.00,283.33 313.19,214.02">
            <param key="origId" value="37908249 985819080"/>
        </lane>
        <lane id="900768_1" index="1" disallow="pedestrian tram rail_urban rail rail_electric rail_fast ship" speed="16.67" length="70.56" shape="303.14,283.93 316.34,214.62">
            <param key="origId" value="37908249 985819080"/>
        </lane>
    </edge>
    <edge id="900769" from="9113518585" to="275104766" name="Светлогорский проезд" priority="11" type="highway.secondary">
        <lane id="900769_0" index="0" disallow="pedestrian tram rail_urban rail rail_electric rail_fast ship" speed="16.67" length="70.56" shape="322.63,215.82 309.43,285.13">
            <param key="origId" value="985819080 37908249"/>
        </lane>
        <lane id="900769_1" index="1" disallow="pedestrian tram rail_urban rail rail_electric rail_fast ship" speed="16.67" length="70.56" shape="319.48,215.22 306.29,284.53">
            <param key="origId" value="985819080 37908249"/>
        </lane>
    </edge>
    <edge id="E0" from="J0" to="248639719" priority="-1">
        <lane id="E0_0" index="0" speed="13.89" length="42.31" shape="488.56,256.49 510.21,292.85"/>
        <lane id="E0_1" index="1" speed="13.89" length="42.31" shape="485.81,258.13 507.46,294.49"/>
    </edge>

    <tlLogic id="linked_0" type="static" programID="0" offset="0">
        <phase duration="65" state="GGGGGGrrrGGrrGGrrrrrrGG"/>
        <phase duration="3"  state="GGyyyyrrryyrrGGrrrrrryy"/>
        <phase duration="35" state="GGrrrrGrrrrGGGGGGGGrrrr"/>
        <phase duration="3"  state="yyrrrryrrrryyyyyyyyrrrr"/>
        <phase duration="20" state="GGGGrrGGGGGrrrrrrGGGGrr"/>
        <phase duration="3"  state="yyyyrryyyyyrrrrrryyyyrr"/>
        <phase duration="24" state="rrrrrrrrrrrrrrrrrrrrrrr"/>
    </tlLogic>
    <tlLogic id="separate_0" type="static" programID="0" offset="0">
        <phase duration="40" state="GGrrrGGGGGrrrGr"/>
        <phase duration="3"  state="GGrrryyyGGrrryr"/>
        <phase duration="22" state="GGGGGrrrGGGGGrr"/>
        <phase duration="3"  state="yyyyyrrryyyyyrr"/>
        <phase duration="24" state="rrrrrrrrrrrrrrr"/>
        <phase duration="34" state="GGrrrrrrGGrrrGG"/>
        <phase duration="3"  state="GGrrrrrrGGrrrGy"/>
    </tlLogic>

    <junction id="248441665" type="traffic_light" x="273.18" y="340.78" incLanes="1057892462_0 1057892462_1 900700_0 900700_1" intLanes=":248441665_0_0 :248441665_0_1 :248441665_2_0 :248441665_2_1 :248441665_4_0 :248441665_4_1" shape="294.57,336.89 288.51,325.61 287.98,325.01 282.81,321.22 281.29,323.80 280.31,325.88 279.52,327.61 278.55,329.17 277.05,330.71 274.66,332.38 281.32,343.31 284.03,341.73 286.08,340.67 287.83,339.89 289.60,339.15 291.73,338.23">
        <request index="0" response="000000" foes="000000" cont="0"/>
        <request index="1" response="000000" foes="000000" cont="0"/>
        <request index="2" response="000000" foes="000000" cont="0"/>
        <request index="3" response="000000" foes="000000" cont="0"/>
        <request index="4" response="000000" foes="000000" cont="0"/>
        <request index="5" response="000000" foes="000000" cont="0"/>
    </junction>
    <junction id="248639719" type="traffic_light" x="512.94" y="306.81" incLanes="6591_0 6591_1 6587_0 6587_1 E0_0 E0_1 -1160720735#1_0 -1160720735#1_1" intLanes=":248639719_0_0 :248639719_0_1 :248639719_2_0 :248639719_3_0 :248639719_3_1 :248639719_5_0 :248639719_6_0 :248639719_6_1 :248639719_8_0 :248639719_8_1 :248639719_10_0 :248639719_11_0 :248639719_11_1 :248639719_13_0 :248639719_14_0" shape="513.36,321.14 521.82,316.61 521.21,314.64 521.40,313.95 521.92,313.44 522.76,313.13 523.93,313.01 523.70,300.21 521.37,300.02 519.17,299.36 517.09,298.23 515.13,296.63 513.30,294.57 511.59,292.03 503.34,296.94 504.03,298.85 503.88,299.52 503.38,299.99 502.55,300.27 501.39,300.36 501.34,313.16 503.83,313.39 506.12,314.06 508.22,315.17 510.13,316.72 511.84,318.71">
        <request index="0"  response="000000011000000" foes="001100011000000" cont="0"/>
        <request index="1"  response="000000011000000" foes="001100011000000" cont="0"/>
        <request index="2"  response="110000011000000" foes="111100011000000" cont="0"/>
        <request index="3"  response="110011111000000" foes="110011111000000" cont="0"/>
        <request index="4"  response="110011111000000" foes="110011111000000" cont="0"/>
        <request index="5"  response="000000000000000" foes="100010000000000" cont="0"/>
        <request index="6"  response="000000000000000" foes="101110000011111" cont="0"/>
        <request index="7"  response="000000000000000" foes="101110000011111" cont="0"/>
        <request index="8"  response="010000000000000" foes="010000000011000" cont="0"/>
        <request index="9"  response="010000000000000" foes="010000000011000" cont="0"/>
        <request index="10" response="110000011100000" foes="110000011111000" cont="0"/>
        <request index="11" response="110000011000111" foes="110000011000111" cont="0"/>
        <request index="12" response="110000011000111" foes="110000011000111" cont="0"/>
        <request index="13" response="000000000000000" foes="001111100011100" cont="0"/>
        <request index="14" response="000000011100000" foes="001110011111100" cont="0"/>
    </junction>
    <junction id="248762773" type="dead_end" x="574.36" y="420.77" incLanes="6590_0" intLanes="" shape="574.07,420.93 576.89,419.42 574.07,420.93"/>
    <junction id="248789709" type="dead_end" x="620.78" y="304.84" incLanes="6586_0 6586_1" intLanes="" shape="620.78,304.84 620.66,298.44 620.78,304.84"/>
    <junction id="275104766" type="traffic_light" x="305.42" y="280.53" incLanes="900769_0 900769_1 1057892464#0_0 1057892464#0_1 23114445#0_0 23114445#0_1" intLanes=":275104766_0_0 :275104766_1_0 :275104766_1_1 :275104766_3_0 :275104766_3_1 :275104766_5_0 :275104766_5_1" shape="314.54,299.66 318.03,298.37 315.55,296.15 313.60,293.96 312.16,291.79 311.25,289.65 310.87,287.53 311.00,285.43 298.43,283.03 297.42,288.43 296.65,292.44 295.87,295.70 294.83,298.89 293.30,302.65 291.03,307.64 297.87,308.12 298.89,306.55 299.33,306.39 299.71,306.65 300.04,307.33 300.32,308.42 313.50,309.12 312.87,305.45 312.56,302.62 312.57,300.63 312.90,299.47 313.56,299.15">
        <request index="0" response="0000000" foes="0000000" cont="0"/>
        <request index="1" response="0000000" foes="0000000" cont="0"/>
        <request index="2" response="0000000" foes="0000000" cont="0"/>
        <request index="3" response="1100000" foes="1100000" cont="0"/>
        <request index="4" response="1100000" foes="1100000" cont="0"/>
        <request index="5" response="0000000" foes="0011000" cont="0"/>
        <request index="6" response="0000000" foes="0011000" cont="0"/>
    </junction>
    <junction id="348227575" type="dead_end" x="56.91" y="472.57" incLanes="900701_0 900701_1" intLanes="" shape="56.91,472.57 60.24,478.04 56.91,472.57"/>
    <junction id="9113518585" type="dead_end" x="317.91" y="214.92" incLanes="900768_0 900768_1" intLanes="" shape="317.91,214.92 311.62,213.72 317.91,214.92"/>
    <junction id="J0" type="dead_end" x="484.44" y="258.95" incLanes="-E0_0" intLanes="" shape="484.44,258.95 481.69,260.59 484.44,258.95"/>