<?xml version="1.0" encoding="UTF-8"?>

<!-- generated on 2024-05-18 12:56:07 by Eclipse SUMO netedit Version 1.19.0
<configuration xmlns:xsi="http://www.w3.org/2001/XMLSchema-instance" xsi:noNamespaceSchemaLocation="http://sumo.dlr.de/xsd/neteditConfiguration.xsd">

    <input>
        <sumo-net-file value="/home/pavel/dev/tssproblem/commercial/net/osm.net.xml"/>
    </input>

    <output>
        <output-file value="/home/pavel/dev/tssproblem/commercial/net/osm.net.xml"/>
        <output.street-names value="true"/>
    </output>

    <processing>
        <geometry.min-radius.fix.railways value="false"/>
        <geometry.max-grade.fix value="false"/>
        <offset.disable-normalization value="true"/>
        <lefthand value="0"/>
    </processing>

    <junctions>
        <no-turnarounds value="true"/>
        <junctions.corner-detail value="5"/>
        <junctions.limit-turn-speed value="5.50"/>
        <rectangular-lane-cut value="0"/>
    </junctions>

    <pedestrian>
        <walkingareas value="0"/>
    </pedestrian>

</configuration>
-->

<net version="1.16" junctionCornerDetail="5" limitTurnSpeed="5.50" xmlns:xsi="http://www.w3.org/2001/XMLSchema-instance" xsi:noNamespaceSchemaLocation="http://sumo.dlr.de/xsd/net_file.xsd">

    <location netOffset="-399694.65,-6190280.98" convBoundary="251.51,257.83,539.80,350.53" origBoundary="37.394578,55.835607,37.454212,55.858484" projParameter="+proj=utm +zone=37 +ellps=WGS84 +datum=WGS84 +units=m +no_defs"/>

    <type id="highway.secondary" priority="11" numLanes="1" speed="27.78" disallow="tram rail_urban rail rail_electric rail_fast ship" oneway="0"/>
    <type id="highway.secondary_link" priority="6" numLanes="1" speed="22.22" disallow="tram rail_urban rail rail_electric rail_fast ship" oneway="0"/>

    <edge id=":248441665_0" function="internal">
        <lane id=":248441665_0_0" index="0" disallow="pedestrian tram rail_urban rail rail_electric rail_fast ship" speed="16.67" length="17.92" shape="293.81,335.48 277.88,343.98"/>
        <lane id=":248441665_0_1" index="1" disallow="pedestrian tram rail_urban rail rail_electric rail_fast ship" speed="16.67" length="17.92" shape="292.30,332.66 276.62,341.04"/>
    </edge>
    <edge id=":248441665_2" function="internal">
        <lane id=":248441665_2_0" index="0" disallow="pedestrian tram rail_urban rail rail_electric rail_fast ship" speed="17.24" length="16.92" shape="274.10,335.16 278.20,332.73 280.22,330.02 281.69,326.63 284.10,322.17"/>
        <lane id=":248441665_2_1" index="1" disallow="pedestrian tram rail_urban rail rail_electric rail_fast ship" speed="17.39" length="17.21" shape="274.10,335.16 278.66,333.01 281.54,330.99 283.85,328.28 286.69,324.06"/>
    </edge>
    <edge id=":248441665_4" function="internal">
        <lane id=":248441665_4_0" index="0" disallow="pedestrian tram rail_urban rail rail_electric rail_fast ship" speed="16.67" length="17.36" shape="274.10,335.16 289.26,327.02"/>
        <lane id=":248441665_4_1" index="1" disallow="pedestrian tram rail_urban rail rail_electric rail_fast ship" speed="16.67" length="17.36" shape="275.36,338.10 290.78,329.84"/>
    </edge>
    <edge id=":248639719_0" function="internal">
        <lane id=":248639719_0_0" index="0" disallow="pedestrian tram rail_urban rail rail_electric rail_fast ship" speed="10.58" length="16.18" shape="514.49,320.23 512.02,316.45 509.08,313.75 505.68,312.12 501.81,311.57"/>
        <lane id=":248639719_0_1" index="1" disallow="pedestrian tram rail_urban rail rail_electric rail_fast ship" speed="11.17" length="18.11" shape="514.49,320.23 511.40,315.05 508.25,311.35 505.06,309.12 501.82,308.37"/>
    </edge>
    <edge id=":248639719_2" function="internal">
        <lane id=":248639719_2_0" index="0" disallow="pedestrian tram rail_urban rail rail_electric rail_fast ship" speed="15.28" length="25.62" shape="517.33,318.76 505.37,296.10"/>
    </edge>
    <edge id=":248639719_3" function="internal">
        <lane id=":248639719_3_0" index="0" disallow="pedestrian tram rail_urban rail rail_electric rail_fast ship" speed="8.84" length="23.54" shape="517.33,318.76 514.48,311.46 514.54,306.18 517.51,302.92 523.40,301.68"/>
        <lane id=":248639719_3_1" index="1" disallow="pedestrian tram rail_urban rail rail_electric rail_fast ship" speed="8.17" length="19.89" shape="517.33,318.76 515.10,312.84 515.38,308.55 518.18,305.90 523.50,304.88"/>
    </edge>
    <edge id=":248639719_5" function="internal">
        <lane id=":248639719_5_0" index="0" disallow="pedestrian tram rail_urban rail rail_electric rail_fast ship" speed="5.76" length="9.17" shape="523.70,311.28 521.03,311.73 519.55,312.88 519.26,314.73 520.17,317.29"/>
    </edge>
    <edge id=":248639719_6" function="internal">
        <lane id=":248639719_6_0" index="0" disallow="pedestrian tram rail_urban rail rail_electric rail_fast ship" speed="16.67" length="21.83" shape="523.70,311.28 501.81,311.57"/>
        <lane id=":248639719_6_1" index="1" disallow="pedestrian tram rail_urban rail rail_electric rail_fast ship" speed="16.67" length="21.83" shape="523.60,308.08 501.82,308.37"/>
    </edge>
    <edge id=":248639719_8" function="internal">
        <lane id=":248639719_8_0" index="0" disallow="pedestrian tram rail_urban rail rail_electric rail_fast ship" speed="10.38" length="15.92" shape="511.01,293.07 513.57,296.93 516.48,299.65 519.76,301.23 523.40,301.68"/>
        <lane id=":248639719_8_1" index="1" disallow="pedestrian tram rail_urban rail rail_electric rail_fast ship" speed="10.98" length="17.91" shape="511.01,293.07 514.21,298.31 517.35,302.02 520.45,304.21 523.50,304.88"/>
    </edge>
    <edge id=":248639719_10" function="internal">
        <lane id=":248639719_10_0" index="0" disallow="pedestrian tram rail_urban rail rail_electric rail_fast ship" speed="15.28" length="25.67" shape="508.19,294.59 520.17,317.29"/>
    </edge>
    <edge id=":248639719_11" function="internal">
        <lane id=":248639719_11_0" index="0" disallow="pedestrian tram rail_urban rail rail_electric rail_fast ship" speed="8.83" length="24.13" shape="508.19,294.59 511.23,302.04 511.17,307.35 508.03,310.53 501.81,311.57"/>
        <lane id=":248639719_11_1" index="1" disallow="pedestrian tram rail_urban rail rail_electric rail_fast ship" speed="8.15" length="20.35" shape="508.19,294.59 510.58,300.64 510.31,304.95 507.40,307.53 501.82,308.37"/>
    </edge>
    <edge id=":248639719_13" function="internal">
        <lane id=":248639719_13_0" index="0" disallow="pedestrian tram rail_urban rail rail_electric rail_fast ship" speed="16.67" length="21.55" shape="501.85,301.97 523.40,301.68"/>
    </edge>
    <edge id=":248639719_14" function="internal">
        <lane id=":248639719_14_0" index="0" disallow="pedestrian tram rail_urban rail rail_electric rail_fast ship" speed="12.59" length="23.18" shape="501.84,305.17 507.51,305.94 512.46,308.22 516.68,312.00 520.17,317.29"/>
    </edge>
    <edge id=":275104766_0" function="internal">
        <lane id=":275104766_0_0" index="0" disallow="pedestrian tram rail_urban rail rail_electric rail_fast ship" speed="10.67" length="16.42" shape="309.42,284.98 309.30,288.58 310.40,292.12 312.73,295.59 316.29,299.01"/>
    </edge>
    <edge id=":275104766_1" function="internal">
        <lane id=":275104766_1_0" index="0" disallow="pedestrian tram rail_urban rail rail_electric rail_fast ship" speed="16.67" length="25.23" shape="306.28,284.35 306.05,290.96 307.61,296.68 309.90,302.41 311.85,309.03"/>
        <lane id=":275104766_1_1" index="1" disallow="pedestrian tram rail_urban rail rail_electric rail_fast ship" speed="16.67" length="25.23" shape="306.28,284.35 305.53,290.93 305.96,296.60 307.12,302.26 308.56,308.86"/>
    </edge>
    <edge id=":275104766_3" function="internal">
        <lane id=":275104766_3_0" index="0" disallow="pedestrian tram rail_urban rail rail_electric rail_fast ship" speed="19.45" length="25.57" shape="292.74,307.76 295.38,301.46 297.22,295.70 298.63,289.80 300.01,283.08"/>
        <lane id=":275104766_3_1" index="1" disallow="pedestrian tram rail_urban rail rail_electric rail_fast ship" speed="19.45" length="25.57" shape="296.16,308.00 298.76,301.76 300.50,296.14 301.81,290.37 303.14,283.72"/>
    </edge>
    <edge id=":275104766_5" function="internal">
        <lane id=":275104766_5_0" index="0" disallow="pedestrian tram rail_urban rail rail_electric rail_fast ship" speed="16.67" length="25.50" shape="301.97,308.51 300.58,301.78 299.53,295.79 299.21,289.81 300.01,283.08"/>
        <lane id=":275104766_5_1" index="1" disallow="pedestrian tram rail_urban rail rail_electric rail_fast ship" speed="16.67" length="25.50" shape="305.26,308.68 303.85,302.02 302.75,296.20 302.37,290.37 303.14,283.72"/>
    </edge>
    <edge id=":cluster_248639723_301120787_926163261_0" function="internal">
        <lane id=":cluster_248639723_301120787_926163261_0_0" index="0" disallow="pedestrian tram rail_urban rail rail_electric rail_fast ship" speed="16.67" length="45.73" shape="346.66,315.55 337.08,317.49 325.06,321.51 313.23,326.25 304.22,330.35"/>
        <lane id=":cluster_248639723_301120787_926163261_0_1" index="1" disallow="pedestrian tram rail_urban rail rail_electric rail_fast ship" speed="16.67" length="45.73" shape="346.47,312.36 336.70,314.35 324.26,318.48 312.00,323.33 302.80,327.48"/>
    </edge>
    <edge id=":cluster_248639723_301120787_926163261_2" function="internal">
        <lane id=":cluster_248639723_301120787_926163261_2_0" index="0" disallow="pedestrian tram rail_urban rail rail_electric rail_fast ship" speed="15.20" length="43.40" shape="346.47,312.36 339.32,312.81 324.54,313.67 309.89,314.35 303.13,314.23"/>
        <lane id=":cluster_248639723_301120787_926163261_2_1" index="1" disallow="pedestrian tram rail_urban rail rail_electric rail_fast ship" speed="14.67" length="40.38" shape="346.47,312.36 329.02,313.29 316.49,313.75 308.87,313.74 306.17,313.24"/>
    </edge>
    <edge id=":cluster_248639723_301120787_926163261_4" function="internal">
        <lane id=":cluster_248639723_301120787_926163261_4_0" index="0" disallow="pedestrian tram rail_urban rail rail_electric rail_fast ship" speed="19.45" length="19.78" shape="326.73,305.51 330.39,306.36 334.56,306.58 339.66,306.37 346.10,305.97"/>
        <lane id=":cluster_248639723_301120787_926163261_4_1" index="1" disallow="pedestrian tram rail_urban rail rail_electric rail_fast ship" speed="19.45" length="19.78" shape="326.73,305.51 330.38,306.87 334.56,308.18 339.71,309.07 346.29,309.16"/>
    </edge>
    <edge id=":cluster_248639723_301120787_926163261_6" function="internal">
        <lane id=":cluster_248639723_301120787_926163261_6_0" index="0" disallow="pedestrian tram rail_urban rail rail_electric rail_fast ship" speed="11.09" length="22.47" shape="312.28,311.25 312.79,317.62 311.61,322.92 308.75,327.16 304.22,330.35"/>
        <lane id=":cluster_248639723_301120787_926163261_6_1" index="1" disallow="pedestrian tram rail_urban rail rail_electric rail_fast ship" speed="9.94" length="17.91" shape="309.22,312.25 309.62,317.33 308.68,321.56 306.41,324.94 302.80,327.48"/>
    </edge>
    <edge id=":cluster_248639723_301120787_926163261_8" function="internal">
        <lane id=":cluster_248639723_301120787_926163261_8_0" index="0" disallow="pedestrian tram rail_urban rail rail_electric rail_fast ship" speed="16.67" length="48.25" shape="299.97,321.74 309.56,317.49 322.65,312.41 335.94,308.06 346.10,305.97"/>
        <lane id=":cluster_248639723_301120787_926163261_8_1" index="1" disallow="pedestrian tram rail_urban rail rail_electric rail_fast ship" speed="16.67" length="48.25" shape="301.38,324.61 310.78,320.41 323.45,315.45 336.32,311.20 346.29,309.16"/>
    </edge>

    <edge id="-1124777488" from="248441665" to="cluster_248639723_301120787_926163261" name="улица Саломеи Нерис" priority="11" type="highway.secondary" shape="273.18,340.78 283.91,335.01 310.65,321.82">
        <lane id="-1124777488_0" index="0" disallow="pedestrian tram rail_urban rail rail_electric rail_fast ship" speed="16.67" length="11.88" shape="289.26,327.02 299.97,321.74">
            <param key="origId" value="1124777488 1057892462"/>
        </lane>
        <lane id="-1124777488_1" index="1" disallow="pedestrian tram rail_urban rail rail_electric rail_fast ship" speed="16.67" length="11.88" shape="290.78,329.84 301.38,324.61">
            <param key="origId" value="1124777488 1057892462"/>
        </lane>
        <param key="origTo" value="301120787"/>
    </edge>
    <edge id="-1160720735#1" from="cluster_248639723_301120787_926163261" to="248639719" name="улица Саломеи Нерис" priority="11" type="highway.secondary" shape="346.38,310.76 364.71,309.68 367.97,309.48 392.12,308.33 445.15,307.53 457.01,307.44 466.45,307.20 492.63,306.73 512.94,306.81">
        <lane id="-1160720735#1_0" index="0" disallow="pedestrian tram rail_urban rail rail_electric rail_fast ship" speed="16.67" length="155.73" shape="346.10,305.97 364.43,304.89 367.71,304.69 391.97,303.53 445.08,302.73 456.93,302.64 466.35,302.40 492.60,301.93 501.85,301.97">
            <param key="origId" value="1160720735 127383142 127383142 1084075355 23019070 23019070"/>
        </lane>
        <lane id="-1160720735#1_1" index="1" disallow="pedestrian tram rail_urban rail rail_electric rail_fast ship" speed="16.67" length="155.73" shape="346.29,309.16 364.62,308.08 367.88,307.88 392.07,306.73 445.13,305.93 456.98,305.84 466.42,305.60 492.62,305.13 501.84,305.17">
            <param key="origId" value="1160720735 127383142 127383142 1084075355 23019070 23019070"/>
        </lane>
        <param key="origFrom" value="926163261"/>
    </edge>
    <edge id="-23114445#1" from="275104766" to="cluster_248639723_301120787_926163261" name="Светлогорский проезд" priority="11" type="highway.secondary" shape="305.42,280.53 304.82,291.02 305.48,301.41 307.67,312.67 310.65,321.82">
        <lane id="-23114445#1_0" index="0" disallow="pedestrian tram rail_urban rail rail_electric rail_fast ship" speed="16.67" length="2.86" shape="311.85,309.03 312.28,311.25">
            <param key="origId" value="23114445"/>
        </lane>
        <lane id="-23114445#1_1" index="1" disallow="pedestrian tram rail_urban rail rail_electric rail_fast ship" speed="16.67" length="2.86" shape="308.56,308.86 309.22,312.25">
            <param key="origId" value="23114445"/>
        </lane>
        <param key="origTo" value="301120787"/>
    </edge>
    <edge id="-E0" from="248639719" to="J0" priority="-1">
        <lane id="-E0_0" index="0" speed="13.89" length="14.12" shape="505.37,296.10 498.69,283.66"/>
    </edge>
    <edge id="1057892462" from="cluster_248639723_301120787_926163261" to="248441665" name="улица Саломеи Нерис" priority="11" type="highway.secondary" shape="310.65,321.82 283.91,335.01 273.18,340.78">
        <lane id="1057892462_0" index="0" disallow="pedestrian tram rail_urban rail rail_electric rail_fast ship" speed="16.67" length="11.65" shape="304.22,330.35 293.81,335.48">
            <param key="origId" value="1057892462 1124777488"/>
        </lane>
        <lane id="1057892462_1" index="1" disallow="pedestrian tram rail_urban rail rail_electric rail_fast ship" speed="16.67" length="11.65" shape="302.80,327.48 292.30,332.66">
            <param key="origId" value="1057892462 1124777488"/>
        </lane>
        <param key="origFrom" value="301120787"/>
    </edge>
    <edge id="1057892464#0" from="248441665" to="275104766" priority="6" type="highway.secondary_link" spreadType="center" shape="273.18,340.78 280.05,331.41 285.08,323.59 291.97,313.20 297.82,300.66 301.63,292.40 302.37,279.56">
        <lane id="1057892464#0_0" index="0" disallow="pedestrian tram rail_urban rail rail_electric rail_fast ship" speed="22.22" length="17.77" shape="284.10,322.17 290.57,312.42 292.74,307.76">
            <param key="origId" value="1057892464"/>
        </lane>
        <lane id="1057892464#0_1" index="1" disallow="pedestrian tram rail_urban rail rail_electric rail_fast ship" speed="22.22" length="17.77" shape="286.69,324.06 293.37,313.98 296.16,308.00">
            <param key="origId" value="1057892464"/>
        </lane>
    </edge>
    <edge id="1057892465#0" from="275104766" to="cluster_248639723_301120787_926163261" priority="6" type="highway.secondary_link" spreadType="center" shape="305.42,280.53 307.23,286.36 308.58,289.51 309.54,291.76 313.43,296.69 318.14,300.52 323.89,304.51 334.36,308.20 346.38,310.76">
        <lane id="1057892465#0_0" index="0" disallow="pedestrian tram rail_urban rail rail_electric rail_fast ship" speed="22.22" length="12.40" shape="316.29,299.01 318.14,300.52 323.89,304.51 326.73,305.51">
            <param key="origId" value="1057892465"/>
        </lane>
        <param key="origTo" value="926163261"/>
    </edge>
    <edge id="23019070#0" from="248639719" to="cluster_248639723_301120787_926163261" name="улица Саломеи Нерис" priority="11" type="highway.secondary" shape="512.94,306.81 492.63,306.73 466.45,307.20 457.01,307.44 445.15,307.53 392.12,308.33 367.97,309.48 364.71,309.68 346.38,310.76">
        <lane id="23019070#0_0" index="0" disallow="pedestrian tram rail_urban rail rail_electric rail_fast ship" speed="16.67" length="155.33" shape="501.81,311.57 492.66,311.53 466.55,312.00 457.09,312.24 445.20,312.33 392.27,313.13 368.21,314.27 364.99,314.47 346.66,315.55">
            <param key="origId" value="23019070 23019070 1084075355 127383142 127383142 1160720735"/>
        </lane>
        <lane id="23019070#0_1" index="1" disallow="pedestrian tram rail_urban rail rail_electric rail_fast ship" speed="16.67" length="155.33" shape="501.82,308.37 492.64,308.33 466.48,308.80 457.04,309.04 445.17,309.13 392.17,309.93 368.05,311.08 364.80,311.28 346.47,312.36">
            <param key="origId" value="23019070 23019070 1084075355 127383142 127383142 1160720735"/>
        </lane>
        <param key="origTo" value="926163261"/>
    </edge>
    <edge id="23114445#0" from="cluster_248639723_301120787_926163261" to="275104766" name="Светлогорский проезд" priority="11" type="highway.secondary" shape="310.65,321.82 307.67,312.67 305.48,301.41 304.82,291.02 305.42,280.53">
        <lane id="23114445#0_0" index="0" disallow="pedestrian tram rail_urban rail rail_electric rail_fast ship" speed="16.67" length="5.25" shape="303.13,314.23 303.01,313.88 301.97,308.51">
            <param key="origId" value="23114445"/>
        </lane>
        <lane id="23114445#0_1" index="1" disallow="pedestrian tram rail_urban rail rail_electric rail_fast ship" speed="16.67" length="5.25" shape="306.17,313.24 306.12,313.07 305.26,308.68">
            <param key="origId" value="23114445"/>
        </lane>
        <param key="origFrom" value="301120787"/>
    </edge>
    <edge id="6586" from="248639719" to="248789709" name="бульвар Яна Райниса" priority="11" type="highway.secondary">
        <lane id="6586_0" index="0" disallow="pedestrian tram rail_urban rail rail_electric rail_fast ship" speed="16.67" length="16.26" shape="523.40,301.68 539.65,301.17">
            <param key="origId" value="23044868 66665847 66665847 66665847"/>
        </lane>
        <lane id="6586_1" index="1" disallow="pedestrian tram rail_urban rail rail_electric rail_fast ship" speed="16.67" length="16.26" shape="523.50,304.88 539.75,304.37">
            <param key="origId" value="23044868 66665847 66665847 66665847"/>
        </lane>
    </edge>
    <edge id="6587" from="248789709" to="248639719" name="бульвар Яна Райниса" priority="11" type="highway.secondary">
        <lane id="6587_0" index="0" disallow="pedestrian tram rail_urban rail rail_electric rail_fast ship" speed="16.67" length="16.26" shape="539.95,310.77 523.70,311.28">
            <param key="origId" value="66665847 66665847 66665847 23044868"/>
        </lane>
        <lane id="6587_1" index="1" disallow="pedestrian tram rail_urban rail rail_electric rail_fast ship" speed="16.67" length="16.26" shape="539.85,307.57 523.60,308.08">
            <param key="origId" value="66665847 66665847 66665847 23044868"/>
        </lane>
    </edge>
    <edge id="6590" from="248639719" to="248762773" name="улица Героев Панфиловцев" priority="11" type="highway.secondary" shape="512.94,306.81 526.02,332.06">
        <lane id="6590_0" index="0" disallow="pedestrian tram rail_urban rail rail_electric rail_fast ship" speed="16.67" length="16.90" shape="520.17,317.29 527.94,332.29">
            <param key="origId" value="1001148929 1001148929 984862104"/>
        </lane>
    </edge>
    <edge id="6591" from="248762773" to="248639719" name="улица Героев Панфиловцев" priority="11" type="highway.secondary" shape="526.02,332.06 512.94,306.81">
        <lane id="6591_0" index="0" disallow="pedestrian tram rail_urban rail rail_electric rail_fast ship" speed="16.67" length="16.90" shape="522.26,335.24 514.49,320.23">
            <param key="origId" value="984862104 1001148929 1001148929"/>
        </lane>
        <lane id="6591_1" index="1" disallow="pedestrian tram rail_urban rail rail_electric rail_fast ship" speed="16.67" length="16.90" shape="525.10,333.77 517.33,318.76">
            <param key="origId" value="984862104 1001148929 1001148929"/>
        </lane>
    </edge>
    <edge id="900700" from="348227575" to="248441665" name="улица Саломеи Нерис" priority="11" type="highway.secondary" shape="251.51,350.53 259.56,346.63 273.18,340.78">
        <lane id="900700_0" index="0" disallow="pedestrian tram rail_urban rail rail_electric rail_fast ship" speed="16.67" length="26.97" shape="249.42,346.21 257.57,342.26 274.10,335.16">
            <param key="origId" value="46628325 1124777465"/>
        </lane>
        <lane id="900700_1" index="1" disallow="pedestrian tram rail_urban rail rail_electric rail_fast ship" speed="16.67" length="26.97" shape="250.81,349.09 258.90,345.17 275.36,338.10">
            <param key="origId" value="46628325 1124777465"/>
        </lane>
    </edge>
    <edge id="900701" from="248441665" to="348227575" name="улица Саломеи Нерис" priority="11" type="highway.secondary" shape="273.18,340.78 259.56,346.63 251.51,350.53">
        <lane id="900701_0" index="0" disallow="pedestrian tram rail_urban rail rail_electric rail_fast ship" speed="16.67" length="26.68" shape="277.88,343.98 261.55,351.00 253.60,354.85">
            <param key="origId" value="1124777465 46628325"/>
        </lane>
        <lane id="900701_1" index="1" disallow="pedestrian tram rail_urban rail rail_electric rail_fast ship" speed="16.67" length="26.68" shape="276.62,341.04 260.22,348.09 252.21,351.97">
            <param key="origId" value="1124777465 46628325"/>
        </lane>
    </edge>
    <edge id="900768" from="275104766" to="9113518585" name="Светлогорский проезд" priority="11" type="highway.secondary">
        <lane id="900768_0" index="0" disallow="pedestrian tram rail_urban rail rail_electric rail_fast ship" speed="16.67" length="26.73" shape="300.01,283.08 305.29,256.88">
            <param key="origId" value="37908249 985819080"/>
        </lane>
        <lane id="900768_1" index="1" disallow="pedestrian tram rail_urban rail rail_electric rail_fast ship" speed="16.67" length="26.73" shape="303.14,283.72 308.43,257.51">
            <param key="origId" value="37908249 985819080"/>
        </lane>
    </edge>
    <edge id="900769" from="9113518585" to="275104766" name="Светлогорский проезд" priority="11" type="highway.secondary">
        <lane id="900769_0" index="0" disallow="pedestrian tram rail_urban rail rail_electric rail_fast ship" speed="16.67" length="26.73" shape="314.71,258.78 309.42,284.98">
            <param key="origId" value="985819080 37908249"/>
        </lane>
        <lane id="900769_1" index="1" disallow="pedestrian tram rail_urban rail rail_electric rail_fast ship" speed="16.67" length="26.73" shape="311.57,258.15 306.28,284.35">
            <param key="origId" value="985819080 37908249"/>
        </lane>
    </edge>
    <edge id="E0" from="J0" to="248639719" priority="-1">
        <lane id="E0_0" index="0" speed="13.89" length="14.12" shape="504.33,280.63 511.01,293.07"/>
        <lane id="E0_1" index="1" speed="13.89" length="14.12" shape="501.51,282.14 508.19,294.59"/>
    </edge>

    <tlLogic id="linked_0" type="static" programID="0" offset="0">
        <phase duration="65" state="GGGGGGrrrGGrrGGrrrrrrGG"/>
        <phase duration="3"  state="GGyyyyrrryyrrGGrrrrrryy"/>
        <phase duration="35" state="GGrrrrGrrrrGGGGGGGGrrrr"/>
        <phase duration="3"  state="yyrrrrGrrrryyyyyyGGrrrr"/>
        <phase duration="21" state="GGGGrrGGGGGrrrrrrGGGGrr"/>
        <phase duration="3"  state="yyyyrryyyyyrrrrrryyyyrr"/>
        <phase duration="25" state="rrrrrrrrrrrrrrrrrrrrrrr"/>
    </tlLogic>
    <tlLogic id="separate_0" type="static" programID="0" offset="0">
        <phase duration="40" state="GGrrrGGGGGrrrGr"/>
        <phase duration="3"  state="GGrrryyyGGrrryr"/>
        <phase duration="22" state="GGGGGrrrGGGGGrr"/>
        <phase duration="3"  state="yyyyyrrryyyyyrr"/>
        <phase duration="24" state="rrrrrrrrrrrrrrr"/>
        <phase duration="34" state="GGrrrrrrGGrrrGG"/>
        <phase duration="3"  state="GGrrrrrrGGrrrGy"/>
    </tlLogic>

    <junction id="248441665" type="traffic_light" x="273.18" y="340.78" incLanes="1057892462_0 1057892462_1 900700_0 900700_1" intLanes=":248441665_0_0 :248441665_0_1 :248441665_2_0 :248441665_2_1 :248441665_4_0 :248441665_4_1" shape="294.57,336.89 288.51,325.61 287.98,325.01 282.81,321.22 281.12,324.19 280.06,326.66 279.21,328.74 278.11,330.54 276.34,332.15 273.46,333.69 278.52,345.45">
        <request index="0" response="000000" foes="000000" cont="0"/>
        <request index="1" response="000000" foes="000000" cont="0"/>
        <request index="2" response="000000" foes="000000" cont="0"/>
        <request index="3" response="000000" foes="000000" cont="0"/>
        <request index="4" response="000000" foes="000000" cont="0"/>
        <request index="5" response="000000" foes="000000" cont="0"/>
    </junction>
    <junction id="248639719" type="traffic_light" x="512.94" y="306.81" incLanes="6591_0 6591_1 6587_0 6587_1 E0_0 E0_1 -1160720735#1_0 -1160720735#1_1" intLanes=":248639719_0_0 :248639719_0_1 :248639719_2_0 :248639719_3_0 :248639719_3_1 :248639719_5_0 :248639719_6_0 :248639719_6_1 :248639719_8_0 :248639719_8_1 :248639719_10_0 :248639719_11_0 :248639719_11_1 :248639719_13_0 :248639719_14_0" shape="513.07,320.97 521.59,316.55 521.01,314.56 521.21,313.86 521.73,313.34 522.58,313.01 523.75,312.88 523.35,300.08 521.20,299.92 519.18,299.31 517.29,298.24 515.54,296.72 513.91,294.75 512.42,292.32 503.96,296.86 504.57,298.81 504.38,299.50 503.87,299.98 503.03,300.27 501.86,300.37 501.81,313.17 504.13,313.39 506.27,314.05 508.24,315.13 510.03,316.65 511.63,318.59">
        <request index="0"  response="000000011000000" foes="001100011000000" cont="0"/>
        <request index="1"  response="000000011000000" foes="001100011000000" cont="0"/>
        <request index="2"  response="110000011000000" foes="111100011000000" cont="0"/>
        <request index="3"  response="110011111000000" foes="110011111000000" cont="0"/>
        <request index="4"  response="110011111000000" foes="110011111000000" cont="0"/>
        <request index="5"  response="000000000000000" foes="100010000000000" cont="0"/>
        <request index="6"  response="000000000000000" foes="101110000011111" cont="0"/>
        <request index="7"  response="000000000000000" foes="101110000011111" cont="0"/>
        <request index="8"  response="010000000000000" foes="010000000011000" cont="0"/>
        <request index="9"  response="010000000000000" foes="010000000011000" cont="0"/>
        <request index="10" response="110000011100000" foes="110000011111000" cont="0"/>
        <request index="11" response="110000011000111" foes="110000011000111" cont="0"/>
        <request index="12" response="110000011000111" foes="110000011000111" cont="0"/>
        <request index="13" response="000000000000000" foes="001111100011100" cont="0"/>
        <request index="14" response="000000011100000" foes="001110011111100" cont="0"/>
    </junction>
    <junction id="248762773" type="dead_end" x="526.83" y="332.87" incLanes="6590_0" intLanes="" shape="526.52,333.03 529.36,331.56 526.52,333.03"/>
    <junction id="248789709" type="dead_end" x="539.80" y="305.97" incLanes="6586_0 6586_1" intLanes="" shape="539.80,305.97 539.60,299.57 539.80,305.97"/>
    <junction id="275104766" type="traffic_light" x="305.42" y="280.53" incLanes="900769_0 900769_1 1057892464#0_0 1057892464#0_1 23114445#0_0 23114445#0_1" intLanes=":275104766_0_0 :275104766_1_0 :275104766_1_1 :275104766_3_0 :275104766_3_1 :275104766_5_0 :275104766_5_1" shape="314.54,299.66 318.03,298.37 315.52,296.13 313.55,293.91 312.11,291.72 311.20,289.55 310.83,287.41 310.99,285.30 298.44,282.77 297.38,288.21 296.60,292.26 295.83,295.56 294.82,298.79 293.31,302.60 291.03,307.64 297.87,308.12 298.89,306.55 299.33,306.39 299.71,306.65 300.04,307.33 300.32,308.42 313.50,309.12 312.87,305.45 312.56,302.62 312.57,300.63 312.90,299.47 313.56,299.15">
        <request index="0" response="0000000" foes="0000000" cont="0"/>
        <request index="1" response="0000000" foes="0000000" cont="0"/>
        <request index="2" response="0000000" foes="0000000" cont="0"/>
        <request index="3" response="1100000" foes="1100000" cont="0"/>
        <request index="4" response="1100000" foes="1100000" cont="0"/>
        <request index="5" response="0000000" foes="0011000" cont="0"/>
        <request index="6" response="0000000" foes="0011000" cont="0"/>
    </junction>
    <junction id="348227575" type="dead_end" x="251.51" y="350.53" incLanes="900701_0 900701_1" intLanes="" shape="251.51,350.53 254.30,356.29 251.51,350.53"/>
    <junction id="9113518585" type="dead_end" x="310.00" y="257.83" incLanes="900768_0 900768_1" intLanes="" shape="310.00,257.83 303.73,256.56 310.00,257.83"/>