<?xml version="1.0" encoding="UTF-8"?>

<!-- generated on 2024-04-15 10:57:00 by Eclipse SUMO netedit Version 1.19.0
<configuration xmlns:xsi="http://www.w3.org/2001/XMLSchema-instance" xsi:noNamespaceSchemaLocation="http://sumo.dlr.de/xsd/neteditConfiguration.xsd">

    <input>
        <sumo-net-file value="/home/pavel/dev/tssproblem/commercial/net/osm.net.xml"/>
    </input>

    <output>
        <output-file value="/home/pavel/dev/tssproblem/commercial/net/osm.net.xml"/>
        <output.street-names value="true"/>
    </output>

    <processing>
        <geometry.min-radius.fix.railways value="false"/>
        <geometry.max-grade.fix value="false"/>
        <offset.disable-normalization value="true"/>
        <lefthand value="0"/>
    </processing>

    <junctions>
        <no-turnarounds value="true"/>
        <junctions.corner-detail value="5"/>
        <junctions.limit-turn-speed value="5.50"/>
        <rectangular-lane-cut value="0"/>
    </junctions>

    <pedestrian>
        <walkingareas value="0"/>
    </pedestrian>

</configuration>
-->

<net version="1.16" junctionCornerDetail="5" limitTurnSpeed="5.50" xmlns:xsi="http://www.w3.org/2001/XMLSchema-instance" xsi:noNamespaceSchemaLocation="http://sumo.dlr.de/xsd/net_file.xsd">

    <location netOffset="-399694.65,-6190280.98" convBoundary="0.00,167.07,1240.50,425.61" origBoundary="37.394578,55.835607,37.454212,55.858484" projParameter="+proj=utm +zone=37 +ellps=WGS84 +datum=WGS84 +units=m +no_defs"/>

    <type id="highway.secondary" priority="11" numLanes="1" speed="27.78" disallow="tram rail_urban rail rail_electric rail_fast ship" oneway="0"/>
    <type id="highway.secondary_link" priority="6" numLanes="1" speed="22.22" disallow="tram rail_urban rail rail_electric rail_fast ship" oneway="0"/>

    <edge id=":248441665_0" function="internal">
        <lane id=":248441665_0_0" index="0" disallow="pedestrian tram rail_urban rail rail_electric rail_fast ship" speed="16.67" length="17.92" shape="293.81,335.48 277.88,343.98"/>
        <lane id=":248441665_0_1" index="1" disallow="pedestrian tram rail_urban rail rail_electric rail_fast ship" speed="16.67" length="17.92" shape="292.30,332.66 276.62,341.04"/>
    </edge>
    <edge id=":248441665_2" function="internal">
        <lane id=":248441665_2_0" index="0" disallow="pedestrian tram rail_urban rail rail_electric rail_fast ship" speed="17.24" length="16.92" shape="274.10,335.16 278.20,332.73 280.22,330.02 281.69,326.63 284.10,322.17"/>
        <lane id=":248441665_2_1" index="1" disallow="pedestrian tram rail_urban rail rail_electric rail_fast ship" speed="17.39" length="17.21" shape="274.10,335.16 278.66,333.01 281.54,330.99 283.85,328.28 286.69,324.06"/>
    </edge>
    <edge id=":248441665_4" function="internal">
        <lane id=":248441665_4_0" index="0" disallow="pedestrian tram rail_urban rail rail_electric rail_fast ship" speed="16.67" length="17.36" shape="274.10,335.16 289.26,327.02"/>
        <lane id=":248441665_4_1" index="1" disallow="pedestrian tram rail_urban rail rail_electric rail_fast ship" speed="16.67" length="17.36" shape="275.36,338.10 290.78,329.84"/>
    </edge>
    <edge id=":248639719_0" function="internal">
        <lane id=":248639719_0_0" index="0" disallow="pedestrian tram rail_urban rail rail_electric rail_fast ship" speed="10.45" length="17.07" shape="515.74,320.84 513.42,316.80 510.46,313.90 506.87,312.16 502.63,311.57"/>
        <lane id=":248639719_0_1" index="1" disallow="pedestrian tram rail_urban rail rail_electric rail_fast ship" speed="11.02" length="19.07" shape="515.74,320.84 512.90,315.39 509.77,311.50 506.35,309.16 502.64,308.37"/>
    </edge>
    <edge id=":248639719_2" function="internal">
        <lane id=":248639719_2_0" index="0" disallow="pedestrian tram rail_urban rail rail_electric rail_fast ship" speed="15.28" length="26.02" shape="518.50,319.19 514.74,312.60 511.34,306.14 508.54,300.42 506.56,296.08"/>
    </edge>
    <edge id=":248639719_3" function="internal">
        <lane id=":248639719_3_0" index="0" disallow="pedestrian tram rail_urban rail rail_electric rail_fast ship" speed="8.55" length="23.24" shape="518.50,319.19 515.86,312.86 515.86,307.38 518.72,303.54 524.67,302.13"/>
        <lane id=":248639719_3_1" index="1" disallow="pedestrian tram rail_urban rail rail_electric rail_fast ship" speed="8.14" length="20.89" shape="518.50,319.19 515.73,313.07 515.83,308.72 518.80,306.14 524.64,305.33"/>
    </edge>
    <edge id=":248639719_5" function="internal">
        <lane id=":248639719_5_0" index="0" disallow="pedestrian tram rail_urban rail rail_electric rail_fast ship" speed="5.64" length="9.27" shape="524.57,311.73 521.79,312.07 520.31,313.15 520.13,314.97 521.24,317.54"/>
    </edge>
    <edge id=":248639719_6" function="internal">
        <lane id=":248639719_6_0" index="0" disallow="pedestrian tram rail_urban rail rail_electric rail_fast ship" speed="16.67" length="21.95" shape="524.57,311.73 502.63,311.57"/>
        <lane id=":248639719_6_1" index="1" disallow="pedestrian tram rail_urban rail rail_electric rail_fast ship" speed="16.67" length="21.95" shape="524.60,308.53 502.64,308.37"/>
    </edge>
    <edge id=":248639719_8" function="internal">
        <lane id=":248639719_8_0" index="0" disallow="pedestrian tram rail_urban rail rail_electric rail_fast ship" speed="10.13" length="15.89" shape="512.43,293.54 514.57,297.26 517.33,299.94 520.69,301.56 524.67,302.13"/>
        <lane id=":248639719_8_1" index="1" disallow="pedestrian tram rail_urban rail rail_electric rail_fast ship" speed="10.71" length="17.88" shape="512.43,293.54 515.09,298.67 518.02,302.35 521.20,304.56 524.64,305.33"/>
    </edge>
    <edge id=":248639719_10" function="internal">
        <lane id=":248639719_10_0" index="0" disallow="pedestrian tram rail_urban rail rail_electric rail_fast ship" speed="15.28" length="25.60" shape="509.49,294.81 512.64,301.63 515.89,308.01 518.88,313.47 521.24,317.54"/>
    </edge>
    <edge id=":248639719_11" function="internal">
        <lane id=":248639719_11_0" index="0" disallow="pedestrian tram rail_urban rail rail_electric rail_fast ship" speed="8.86" length="23.16" shape="509.49,294.81 511.79,302.16 511.41,307.41 508.36,310.54 502.63,311.57"/>
        <lane id=":248639719_11_1" index="1" disallow="pedestrian tram rail_urban rail rail_electric rail_fast ship" speed="8.19" length="19.60" shape="509.49,294.81 511.27,300.76 510.72,305.00 507.85,307.54 502.64,308.37"/>
    </edge>
    <edge id=":248639719_13" function="internal">
        <lane id=":248639719_13_0" index="0" disallow="pedestrian tram rail_urban rail rail_electric rail_fast ship" speed="16.67" length="22.00" shape="502.67,301.97 524.67,302.13"/>
    </edge>
    <edge id=":248639719_14" function="internal">
        <lane id=":248639719_14_0" index="0" disallow="pedestrian tram rail_urban rail rail_electric rail_fast ship" speed="13.13" length="23.36" shape="502.66,305.17 508.01,305.96 512.90,308.28 517.31,312.15 521.24,317.54"/>
    </edge>
    <edge id=":248762773_0" function="internal">
        <lane id=":248762773_0_0" index="0" disallow="pedestrian tram rail_urban rail rail_electric rail_fast ship" speed="3.65" length="4.67" shape="559.96,406.91 559.70,408.33 559.13,409.02 558.23,408.97 557.02,408.19"/>
    </edge>
    <edge id=":248789709_0" function="internal">
        <lane id=":248789709_0_0" index="0" disallow="pedestrian tram rail_urban rail rail_electric rail_fast ship" speed="3.65" length="4.67" shape="1239.71,171.10 1241.15,171.20 1241.89,171.70 1241.94,172.59 1241.29,173.88"/>
    </edge>
    <edge id=":275104766_0" function="internal">
        <lane id=":275104766_0_0" index="0" disallow="pedestrian tram rail_urban rail rail_electric rail_fast ship" speed="10.70" length="16.11" shape="309.44,285.27 309.39,288.80 310.51,292.27 312.81,295.67 316.29,299.01"/>
    </edge>
    <edge id=":275104766_1" function="internal">
        <lane id=":275104766_1_0" index="0" disallow="pedestrian tram rail_urban rail rail_electric rail_fast ship" speed="16.67" length="24.86" shape="306.29,284.70 306.15,291.27 307.69,296.87 309.93,302.47 311.85,309.03"/>
        <lane id=":275104766_1_1" index="1" disallow="pedestrian tram rail_urban rail rail_electric rail_fast ship" speed="16.67" length="24.86" shape="306.29,284.70 305.63,291.25 306.05,296.79 307.15,302.33 308.56,308.86"/>
    </edge>
    <edge id=":275104766_3" function="internal">
        <lane id=":275104766_3_0" index="0" disallow="pedestrian tram rail_urban rail rail_electric rail_fast ship" speed="19.45" length="25.15" shape="292.74,307.76 295.41,301.54 297.29,295.96 298.71,290.22 300.00,283.57"/>
        <lane id=":275104766_3_1" index="1" disallow="pedestrian tram rail_urban rail rail_electric rail_fast ship" speed="19.45" length="25.15" shape="296.16,308.00 298.79,301.83 300.57,296.36 301.90,290.74 303.15,284.13"/>
    </edge>
    <edge id=":275104766_5" function="internal">
        <lane id=":275104766_5_0" index="0" disallow="pedestrian tram rail_urban rail rail_electric rail_fast ship" speed="16.67" length="25.03" shape="301.97,308.51 300.61,301.86 299.60,296.05 299.29,290.23 300.00,283.57"/>
        <lane id=":275104766_5_1" index="1" disallow="pedestrian tram rail_urban rail rail_electric rail_fast ship" speed="16.67" length="25.03" shape="305.26,308.68 303.88,302.09 302.82,296.42 302.46,290.74 303.15,284.13"/>
    </edge>
    <edge id=":cluster_248639723_301120787_926163261_0" function="internal">
        <lane id=":cluster_248639723_301120787_926163261_0_0" index="0" disallow="pedestrian tram rail_urban rail rail_electric rail_fast ship" speed="16.67" length="45.73" shape="346.66,315.55 337.08,317.49 325.06,321.51 313.23,326.25 304.22,330.35"/>
        <lane id=":cluster_248639723_301120787_926163261_0_1" index="1" disallow="pedestrian tram rail_urban rail rail_electric rail_fast ship" speed="16.67" length="45.73" shape="346.47,312.36 336.70,314.35 324.26,318.48 312.00,323.33 302.80,327.48"/>
    </edge>
    <edge id=":cluster_248639723_301120787_926163261_2" function="internal">
        <lane id=":cluster_248639723_301120787_926163261_2_0" index="0" disallow="pedestrian tram rail_urban rail rail_electric rail_fast ship" speed="15.20" length="43.40" shape="346.47,312.36 339.32,312.81 324.54,313.67 309.89,314.35 303.13,314.23"/>
        <lane id=":cluster_248639723_301120787_926163261_2_1" index="1" disallow="pedestrian tram rail_urban rail rail_electric rail_fast ship" speed="14.67" length="40.38" shape="346.47,312.36 329.02,313.29 316.49,313.75 308.87,313.74 306.17,313.24"/>
    </edge>
    <edge id=":cluster_248639723_301120787_926163261_4" function="internal">
        <lane id=":cluster_248639723_301120787_926163261_4_0" index="0" disallow="pedestrian tram rail_urban rail rail_electric rail_fast ship" speed="19.45" length="19.78" shape="326.73,305.51 330.39,306.36 334.56,306.58 339.66,306.37 346.10,305.97"/>
        <lane id=":cluster_248639723_301120787_926163261_4_1" index="1" disallow="pedestrian tram rail_urban rail rail_electric rail_fast ship" speed="19.45" length="19.78" shape="326.73,305.51 330.38,306.87 334.56,308.18 339.71,309.07 346.29,309.16"/>
    </edge>
    <edge id=":cluster_248639723_301120787_926163261_6" function="internal">
        <lane id=":cluster_248639723_301120787_926163261_6_0" index="0" disallow="pedestrian tram rail_urban rail rail_electric rail_fast ship" speed="11.09" length="22.47" shape="312.28,311.25 312.79,317.62 311.61,322.92 308.75,327.16 304.22,330.35"/>
        <lane id=":cluster_248639723_301120787_926163261_6_1" index="1" disallow="pedestrian tram rail_urban rail rail_electric rail_fast ship" speed="9.94" length="17.91" shape="309.22,312.25 309.62,317.33 308.68,321.56 306.41,324.94 302.80,327.48"/>
    </edge>
    <edge id=":cluster_248639723_301120787_926163261_8" function="internal">
        <lane id=":cluster_248639723_301120787_926163261_8_0" index="0" disallow="pedestrian tram rail_urban rail rail_electric rail_fast ship" speed="16.67" length="48.25" shape="299.97,321.74 309.56,317.49 322.65,312.41 335.94,308.06 346.10,305.97"/>
        <lane id=":cluster_248639723_301120787_926163261_8_1" index="1" disallow="pedestrian tram rail_urban rail rail_electric rail_fast ship" speed="16.67" length="48.25" shape="301.38,324.61 310.78,320.41 323.45,315.45 336.32,311.20 346.29,309.16"/>
    </edge>

    <edge id="-1124777488" from="248441665" to="cluster_248639723_301120787_926163261" name="улица Саломеи Нерис" priority="11" type="highway.secondary" shape="273.18,340.78 283.91,335.01 310.65,321.82">
        <lane id="-1124777488_0" index="0" disallow="pedestrian tram rail_urban rail rail_electric rail_fast ship" speed="16.67" length="11.88" shape="289.26,327.02 299.97,321.74">
            <param key="origId" value="1124777488 1057892462"/>
        </lane>
        <lane id="-1124777488_1" index="1" disallow="pedestrian tram rail_urban rail rail_electric rail_fast ship" speed="16.67" length="11.88" shape="290.78,329.84 301.38,324.61">
            <param key="origId" value="1124777488 1057892462"/>
        </lane>
        <param key="origTo" value="301120787"/>
    </edge>
    <edge id="-1160720735#1" from="cluster_248639723_301120787_926163261" to="248639719" name="улица Саломеи Нерис" priority="11" type="highway.secondary" shape="346.38,310.76 364.71,309.68 367.97,309.48 392.12,308.33 445.15,307.53 457.01,307.44 466.45,307.20 492.63,306.73 512.94,306.81">
        <lane id="-1160720735#1_0" index="0" disallow="pedestrian tram rail_urban rail rail_electric rail_fast ship" speed="16.67" length="156.55" shape="346.10,305.97 364.43,304.89 367.71,304.69 391.97,303.53 445.08,302.73 456.93,302.64 466.35,302.40 492.60,301.93 502.67,301.97">
            <param key="origId" value="1160720735 127383142 127383142 1084075355 23019070 23019070"/>
        </lane>
        <lane id="-1160720735#1_1" index="1" disallow="pedestrian tram rail_urban rail rail_electric rail_fast ship" speed="16.67" length="156.55" shape="346.29,309.16 364.62,308.08 367.88,307.88 392.07,306.73 445.13,305.93 456.98,305.84 466.42,305.60 492.62,305.13 502.66,305.17">
            <param key="origId" value="1160720735 127383142 127383142 1084075355 23019070 23019070"/>
        </lane>
        <param key="origFrom" value="926163261"/>
    </edge>
    <edge id="-23114445#1" from="275104766" to="cluster_248639723_301120787_926163261" name="Светлогорский проезд" priority="11" type="highway.secondary" shape="305.42,280.53 304.82,291.02 305.48,301.41 307.67,312.67 310.65,321.82">
        <lane id="-23114445#1_0" index="0" disallow="pedestrian tram rail_urban rail rail_electric rail_fast ship" speed="16.67" length="2.86" shape="311.85,309.03 312.28,311.25">
            <param key="origId" value="23114445"/>
        </lane>
        <lane id="-23114445#1_1" index="1" disallow="pedestrian tram rail_urban rail rail_electric rail_fast ship" speed="16.67" length="2.86" shape="308.56,308.86 309.22,312.25">
            <param key="origId" value="23114445"/>
        </lane>
        <param key="origTo" value="301120787"/>
    </edge>
    <edge id="-E0" from="248639719" to="J0" priority="-1">
        <lane id="-E0_0" index="0" speed="13.89" length="95.80" shape="506.56,296.08 468.53,208.15"/>
    </edge>
    <edge id="1057892462" from="cluster_248639723_301120787_926163261" to="248441665" name="улица Саломеи Нерис" priority="11" type="highway.secondary" shape="310.65,321.82 283.91,335.01 273.18,340.78">
        <lane id="1057892462_0" index="0" disallow="pedestrian tram rail_urban rail rail_electric rail_fast ship" speed="16.67" length="11.65" shape="304.22,330.35 293.81,335.48">
            <param key="origId" value="1057892462 1124777488"/>
        </lane>
        <lane id="1057892462_1" index="1" disallow="pedestrian tram rail_urban rail rail_electric rail_fast ship" speed="16.67" length="11.65" shape="302.80,327.48 292.30,332.66">
            <param key="origId" value="1057892462 1124777488"/>
        </lane>
        <param key="origFrom" value="301120787"/>
    </edge>
    <edge id="1057892464#0" from="248441665" to="275104766" priority="6" type="highway.secondary_link" spreadType="center" shape="273.18,340.78 280.05,331.41 285.08,323.59 291.97,313.20 297.82,300.66 301.63,292.40 302.37,279.56">
        <lane id="1057892464#0_0" index="0" disallow="pedestrian tram rail_urban rail rail_electric rail_fast ship" speed="22.22" length="17.77" shape="284.10,322.17 290.57,312.42 292.74,307.76">
            <param key="origId" value="1057892464"/>
        </lane>
        <lane id="1057892464#0_1" index="1" disallow="pedestrian tram rail_urban rail rail_electric rail_fast ship" speed="22.22" length="17.77" shape="286.69,324.06 293.37,313.98 296.16,308.00">
            <param key="origId" value="1057892464"/>
        </lane>
    </edge>
    <edge id="1057892465#0" from="275104766" to="cluster_248639723_301120787_926163261" priority="6" type="highway.secondary_link" spreadType="center" shape="305.42,280.53 307.23,286.36 308.58,289.51 309.54,291.76 313.43,296.69 318.14,300.52 323.89,304.51 334.36,308.20 346.38,310.76">
        <lane id="1057892465#0_0" index="0" disallow="pedestrian tram rail_urban rail rail_electric rail_fast ship" speed="22.22" length="12.40" shape="316.29,299.01 318.14,300.52 323.89,304.51 326.73,305.51">
            <param key="origId" value="1057892465"/>
        </lane>
        <param key="origTo" value="926163261"/>
    </edge>
    <edge id="23019070#0" from="248639719" to="cluster_248639723_301120787_926163261" name="улица Саломеи Нерис" priority="11" type="highway.secondary" shape="512.94,306.81 492.63,306.73 466.45,307.20 457.01,307.44 445.15,307.53 392.12,308.33 367.97,309.48 364.71,309.68 346.38,310.76">
        <lane id="23019070#0_0" index="0" disallow="pedestrian tram rail_urban rail rail_electric rail_fast ship" speed="16.67" length="156.15" shape="502.63,311.57 492.66,311.53 466.55,312.00 457.09,312.24 445.20,312.33 392.27,313.13 368.21,314.27 364.99,314.47 346.66,315.55">
            <param key="origId" value="23019070 23019070 1084075355 127383142 127383142 1160720735"/>
        </lane>
        <lane id="23019070#0_1" index="1" disallow="pedestrian tram rail_urban rail rail_electric rail_fast ship" speed="16.67" length="156.15" shape="502.64,308.37 492.64,308.33 466.48,308.80 457.04,309.04 445.17,309.13 392.17,309.93 368.05,311.08 364.80,311.28 346.47,312.36">
            <param key="origId" value="23019070 23019070 1084075355 127383142 127383142 1160720735"/>
        </lane>
        <param key="origTo" value="926163261"/>
    </edge>
    <edge id="23114445#0" from="cluster_248639723_301120787_926163261" to="275104766" name="Светлогорский проезд" priority="11" type="highway.secondary" shape="310.65,321.82 307.67,312.67 305.48,301.41 304.82,291.02 305.42,280.53">
        <lane id="23114445#0_0" index="0" disallow="pedestrian tram rail_urban rail rail_electric rail_fast ship" speed="16.67" length="5.25" shape="303.13,314.23 303.01,313.88 301.97,308.51">
            <param key="origId" value="23114445"/>
        </lane>
        <lane id="23114445#0_1" index="1" disallow="pedestrian tram rail_urban rail rail_electric rail_fast ship" speed="16.67" length="5.25" shape="306.17,313.24 306.12,313.07 305.26,308.68">
            <param key="origId" value="23114445"/>
        </lane>
        <param key="origFrom" value="301120787"/>
    </edge>
    <edge id="6586" from="248639719" to="248789709" name="бульвар Яна Райниса" priority="11" type="highway.secondary" shape="512.94,306.81 533.54,307.02 566.81,306.27 582.38,306.19 618.22,306.01 663.74,305.48 681.70,304.98 732.50,304.17 759.57,303.82 767.48,303.70 782.57,303.32 789.55,303.18 823.11,302.79 828.81,302.76 836.49,302.61 850.77,302.52 867.98,301.89 883.48,300.67 897.63,299.46 905.35,298.34 928.78,294.65 952.43,290.31 973.63,285.13 987.37,281.48 1002.04,277.41 1013.49,273.99 1033.81,267.61 1052.93,262.47 1074.64,255.23 1088.71,250.56 1103.43,244.82 1119.69,237.72 1127.87,233.87 1138.73,228.78 1161.25,217.02 1173.21,210.12 1192.14,199.75 1203.55,193.46 1240.50,172.49">
        <lane id="6586_0" index="0" disallow="pedestrian tram rail_urban rail rail_electric rail_fast ship" speed="16.67" length="739.95" shape="524.67,302.13 533.51,302.22 566.74,301.47 582.36,301.39 618.18,301.21 663.65,300.68 681.59,300.18 732.43,299.37 759.51,299.02 767.38,298.90 782.46,298.52 789.47,298.38 823.06,297.99 828.75,297.96 836.43,297.81 850.67,297.72 867.70,297.10 883.09,295.89 897.08,294.69 904.63,293.59 927.97,289.92 951.43,285.61 972.44,280.48 986.11,276.85 1000.71,272.80 1012.08,269.40 1032.47,263.00 1051.55,257.87 1073.12,250.68 1087.08,246.04 1101.60,240.38 1117.71,233.35 1125.83,229.53 1136.60,224.48 1158.94,212.81 1170.86,205.94 1189.83,195.54 1201.21,189.27 1238.13,168.32">
            <param key="origId" value="23044868 66665847 66665847 66665847"/>
        </lane>
        <lane id="6586_1" index="1" disallow="pedestrian tram rail_urban rail rail_electric rail_fast ship" speed="16.67" length="739.95" shape="524.64,305.33 533.53,305.42 566.79,304.67 582.37,304.59 618.21,304.41 663.71,303.88 681.66,303.38 732.48,302.57 759.55,302.22 767.45,302.10 782.53,301.72 789.52,301.58 823.09,301.19 828.79,301.16 836.47,301.01 850.74,300.92 867.89,300.29 883.35,299.08 897.45,297.87 905.11,296.76 928.51,293.07 952.10,288.74 973.23,283.58 986.95,279.94 1001.60,275.87 1013.02,272.46 1033.36,266.07 1052.47,260.94 1074.13,253.71 1088.17,249.05 1102.82,243.34 1119.03,236.26 1127.19,232.42 1138.02,227.35 1160.48,215.62 1172.43,208.73 1191.37,198.35 1202.77,192.06 1239.71,171.10">
            <param key="origId" value="23044868 66665847 66665847 66665847"/>
        </lane>
    </edge>
    <edge id="6587" from="248789709" to="248639719" name="бульвар Яна Райниса" priority="11" type="highway.secondary" shape="1240.50,172.49 1203.55,193.46 1192.14,199.75 1173.21,210.12 1161.25,217.02 1138.73,228.78 1127.87,233.87 1119.69,237.72 1103.43,244.82 1088.71,250.56 1074.64,255.23 1052.93,262.47 1033.81,267.61 1013.49,273.99 1002.04,277.41 987.37,281.48 973.63,285.13 952.43,290.31 928.78,294.65 905.35,298.34 897.63,299.46 883.48,300.67 867.98,301.89 850.77,302.52 836.49,302.61 828.81,302.76 823.11,302.79 789.55,303.18 782.57,303.32 767.48,303.70 759.57,303.82 732.50,304.17 681.70,304.98 663.74,305.48 618.22,306.01 582.38,306.19 566.81,306.27 533.54,307.02 512.94,306.81">
        <lane id="6587_0" index="0" disallow="pedestrian tram rail_urban rail rail_electric rail_fast ship" speed="16.67" length="743.32" shape="1242.87,176.66 1205.89,197.65 1194.45,203.96 1175.56,214.30 1163.56,221.23 1140.86,233.08 1129.91,238.21 1121.67,242.09 1105.26,249.26 1090.34,255.08 1076.16,259.78 1054.31,267.07 1035.15,272.22 1014.90,278.58 1003.37,282.02 988.63,286.11 974.82,289.78 953.43,295.01 929.59,299.38 906.08,303.08 898.18,304.23 883.87,305.45 868.26,306.68 850.87,307.32 836.55,307.41 828.87,307.56 823.15,307.59 789.61,307.98 782.68,308.12 767.58,308.50 759.63,308.62 732.57,308.97 681.81,309.78 663.83,310.28 618.26,310.81 582.40,310.99 566.88,311.07 533.57,311.82 524.57,311.73">
            <param key="origId" value="66665847 66665847 66665847 23044868"/>
        </lane>
        <lane id="6587_1" index="1" disallow="pedestrian tram rail_urban rail rail_electric rail_fast ship" speed="16.67" length="743.32" shape="1241.29,173.88 1204.33,194.86 1192.91,201.15 1173.99,211.51 1162.02,218.42 1139.44,230.21 1128.55,235.32 1120.35,239.18 1104.04,246.30 1089.25,252.07 1075.15,256.75 1053.39,264.00 1034.26,269.15 1013.96,275.52 1002.48,278.95 987.79,283.02 974.03,286.68 952.76,291.88 929.05,296.23 905.59,299.92 897.81,301.05 883.61,302.26 868.07,303.49 850.80,304.12 836.51,304.21 828.83,304.36 823.12,304.39 789.57,304.78 782.61,304.92 767.51,305.30 759.59,305.42 732.52,305.77 681.74,306.58 663.77,307.08 618.23,307.61 582.39,307.79 566.83,307.87 533.55,308.62 524.60,308.53">
            <param key="origId" value="66665847 66665847 66665847 23044868"/>
        </lane>
    </edge>
    <edge id="6590" from="248639719" to="248762773" name="улица Героев Панфиловцев" priority="11" type="highway.secondary" shape="512.94,306.81 519.98,318.55 525.77,331.91 533.71,350.29 536.53,356.80 541.07,369.43 550.15,388.29 558.49,407.55">
        <lane id="6590_0" index="0" disallow="pedestrian tram rail_urban rail rail_electric rail_fast ship" speed="16.67" length="97.45" shape="521.24,317.54 521.41,317.82 527.24,331.27 535.18,349.66 538.02,356.21 542.55,368.81 551.61,387.62 559.96,406.91">
            <param key="origId" value="1001148929 1001148929 984862104"/>
        </lane>
    </edge>
    <edge id="6591" from="248762773" to="248639719" name="улица Героев Панфиловцев" priority="11" type="highway.secondary" shape="558.49,407.55 550.15,388.29 541.07,369.43 536.53,356.80 533.71,350.29 525.77,331.91 519.98,318.55 512.94,306.81">
        <lane id="6591_0" index="0" disallow="pedestrian tram rail_urban rail rail_electric rail_fast ship" speed="16.67" length="96.81" shape="554.09,409.46 545.78,390.29 536.64,371.29 532.06,358.57 529.30,352.19 521.36,333.82 515.74,320.84">
            <param key="origId" value="984862104 1001148929 1001148929"/>
        </lane>
        <lane id="6591_1" index="1" disallow="pedestrian tram rail_urban rail rail_electric rail_fast ship" speed="16.67" length="96.81" shape="557.02,408.19 548.69,388.96 539.59,370.05 535.04,357.39 532.24,350.92 524.30,332.55 518.55,319.28 518.50,319.19">
            <param key="origId" value="984862104 1001148929 1001148929"/>
        </lane>
    </edge>
    <edge id="900700" from="348227575" to="248441665" name="улица Саломеи Нерис" priority="11" type="highway.secondary" shape="0.00,425.61 8.64,422.95 17.00,420.18 47.30,410.23 81.37,399.39 117.41,388.35 151.94,377.78 184.04,368.49 194.50,365.56 221.10,358.47 233.50,354.81 244.41,351.87 259.56,346.63 273.18,340.78">
        <lane id="900700_0" index="0" disallow="pedestrian tram rail_urban rail rail_electric rail_fast ship" speed="16.67" length="288.90" shape="-1.41,421.02 7.18,418.38 15.50,415.62 45.82,405.66 79.94,394.81 116.00,383.76 150.57,373.18 182.72,363.88 193.23,360.93 219.80,353.85 232.20,350.19 243.00,347.28 257.83,342.15 274.10,335.16">
            <param key="origId" value="46628325 1124777465"/>
        </lane>
        <lane id="900700_1" index="1" disallow="pedestrian tram rail_urban rail rail_electric rail_fast ship" speed="16.67" length="288.90" shape="-0.47,424.08 8.15,421.43 16.50,418.66 46.81,408.71 80.89,397.86 116.94,386.82 151.48,376.25 183.60,366.95 194.08,364.02 220.67,356.93 233.07,353.27 243.94,350.34 258.98,345.14 275.36,338.10">
            <param key="origId" value="46628325 1124777465"/>
        </lane>
    </edge>
    <edge id="900701" from="248441665" to="348227575" name="улица Саломеи Нерис" priority="11" type="highway.secondary" shape="273.18,340.78 259.56,346.63 244.41,351.87 233.50,354.81 221.10,358.47 194.50,365.56 184.04,368.49 151.94,377.78 117.41,388.35 81.37,399.39 47.30,410.23 17.00,420.18 8.64,422.95 0.00,425.61">
        <lane id="900701_0" index="0" disallow="pedestrian tram rail_urban rail rail_electric rail_fast ship" speed="16.67" length="289.59" shape="277.88,343.98 261.29,351.11 245.82,356.46 234.80,359.43 222.40,363.09 195.77,370.19 185.35,373.11 153.31,382.38 118.82,392.94 82.80,403.97 48.78,414.80 18.50,424.74 10.10,427.52 1.41,430.20">
            <param key="origId" value="1124777465 46628325"/>
        </lane>
        <lane id="900701_1" index="1" disallow="pedestrian tram rail_urban rail rail_electric rail_fast ship" speed="16.67" length="289.59" shape="276.62,341.04 260.14,348.12 244.88,353.40 233.93,356.35 221.53,360.01 194.92,367.10 184.48,370.03 152.40,379.31 117.88,389.88 81.85,400.92 47.79,411.75 17.50,421.70 9.13,424.47 0.47,427.14">
            <param key="origId" value="1124777465 46628325"/>
        </lane>
    </edge>
    <edge id="900768" from="275104766" to="9113518585" name="Светлогорский проезд" priority="11" type="highway.secondary" shape="305.42,280.53 310.85,250.38 312.66,241.24 314.87,229.36 316.94,221.08 319.66,208.22 321.45,199.94 327.88,167.07">
        <lane id="900768_0" index="0" disallow="pedestrian tram rail_urban rail rail_electric rail_fast ship" speed="16.67" length="119.68" shape="300.00,283.57 306.13,249.49 307.95,240.33 310.18,228.34 312.26,220.00 314.97,207.22 316.75,198.97 323.17,166.15">
            <param key="origId" value="37908249 985819080"/>
        </lane>
        <lane id="900768_1" index="1" disallow="pedestrian tram rail_urban rail rail_electric rail_fast ship" speed="16.67" length="119.68" shape="303.15,284.13 309.28,250.08 311.09,240.94 313.31,229.02 315.38,220.72 318.10,207.89 319.88,199.62 326.31,166.76">
            <param key="origId" value="37908249 985819080"/>
        </lane>
    </edge>
    <edge id="900769" from="9113518585" to="275104766" name="Светлогорский проезд" priority="11" type="highway.secondary" shape="327.88,167.07 321.45,199.94 319.66,208.22 316.94,221.08 314.87,229.36 312.66,241.24 310.85,250.38 305.42,280.53">
        <lane id="900769_0" index="0" disallow="pedestrian tram rail_urban rail rail_electric rail_fast ship" speed="16.67" length="119.58" shape="332.59,167.99 326.15,200.91 324.35,209.22 321.62,222.16 319.56,230.38 317.37,242.15 315.57,251.27 309.44,285.27">
            <param key="origId" value="985819080 37908249"/>
        </lane>
        <lane id="900769_1" index="1" disallow="pedestrian tram rail_urban rail rail_electric rail_fast ship" speed="16.67" length="119.58" shape="329.45,167.38 323.02,200.26 321.22,208.55 318.50,221.44 316.43,229.70 314.23,241.54 312.42,250.68 306.29,284.70">
            <param key="origId" value="985819080 37908249"/>
        </lane>
    </edge>
    <edge id="E0" from="J0" to="248639719" priority="-1">
        <lane id="E0_0" index="0" speed="13.89" length="95.80" shape="474.41,205.60 512.43,293.54"/>